
    CNRS - NERC - Met OFFICE - MERCATOR-ocean - INGV - CMCC
                        NEMO team
             Ocean General Circulation Model
                   version 3.6  (2015) 



AAAAAAAA


 nemo_ctl: Control prints & Benchmark
 ~~~~~~~ 
    Namelist namctl
       run control (for debugging)     ln_ctl     =  F
       level of print                  nn_print   =            0
       Start i indice for SUM control  nn_ictls   =            0
       End i indice for SUM control    nn_ictle   =            0
       Start j indice for SUM control  nn_jctls   =            0
       End j indice for SUM control    nn_jctle   =            0
       number of proc. following i     nn_isplt   =            1
       number of proc. following j     nn_jsplt   =            1
       benchmark parameter (0/1)       nn_bench   =            0
       timing activated    (0/1)       nn_timing  =            0

 namcfg  : configuration initialization through namelist read
 ~~~~~~~ 
    Namelist namcfg
       configuration name              cp_cfg      = saz
       configuration zoom name         cp_cfz      = no zoom
       configuration resolution        jp_cfg      =            1
       1st lateral dimension ( >= jpi ) jpidta     =            3
       2nd    "         "    ( >= jpj ) jpjdta     =            3
       3nd    "         "               jpkdta     =           51
       1st dimension of global domain in i jpiglo  =            3
       2nd    -                  -    in j jpjglo  =            3
       left bottom i index of the zoom (in data domain) jpizoom =            1
       left bottom j index of the zoom (in data domain) jpizoom =            1
       lateral cond. type (between 0 and 6) jperio =            0
       use file attribute if exists as i/p j-start ln_use_jattr =  F

 mpp_init(2) : NO massively parallel processing
 ~~~~~~~~~~~: 
          nperio =            0
          npolj  =            0
          nimpp  =            1
          njmpp  =            1

  phy_cst : initialization of ocean parameters and constants
  ~~~~~~~
        Domain info
           dimension of model
                  Local domain      Global domain       Data domain 
               jpi     :       3   jpiglo  :       3   jpidta  :       3
               jpj     :       3   jpjglo  :       3   jpjdta  :       3
               jpk     :      51   jpk     :      51   jpkdta  :      51
               jpij    :            9
           mpp local domain info (mpp)
              jpni    :            1    jpreci  :            1
              jpnj    :            1    jprecj  :            1
              jpnij   :            1
           lateral domain boundary condition type : jperio  =            0

        Constants

           mathematical constant                 rpi =    3.1415926535897931     

           day                                rday   =    86400.000000000000       s
           sideral year                       rsiyea =    31558149.010110732       s
           sideral day                        rsiday =    86164.099655911836       s
           omega                              omega  =    7.2921150830460618E-005  s^-1

           nb of months per year               raamo =    12.000000000000000       months
           nb of hours per day                 rjjhh =    24.000000000000000       hours
           nb of minutes per hour              rhhmm =    60.000000000000000       mn
           nb of seconds per minute            rmmss =    60.000000000000000       s

           earth radius                         ra   =    6371229.0000000000       m
           gravity                              grav =    9.8066499999999994       m/s^2

           triple point of temperature      rtt      =    273.16000000000003       K
           freezing point of water          rt0      =    273.14999999999998       K
           melting point of snow            rt0_snow =    273.14999999999998       K
           melting point of ice             rt0_ice  =    273.05000000000001       K
           reference density and heat capacity now defined in eosbn2.f90

           thermal conductivity of the snow          =   0.22000000000000000       J/s/m/K
           thermal conductivity of the ice           =    2.0343960000000001       J/s/m/K
           fresh ice specific heat                   =    2093.0000000000000       J/kg/K
           latent heat of fusion of fresh ice / snow =    333700.00000000000       J/kg
           density times specific heat for snow      =    690690.00000000000       J/m^3/K
           density times specific heat for ice       =    1883700.0000000000       J/m^3/K
           volumetric latent heat fusion of sea ice  =    300330000.00000000       J/m
           latent heat of sublimation of snow        =    2800000.0000000000       J/kg
           volumetric latent heat fusion of snow     =    110121000.00000000       J/m^3
           density of sea ice                        =    900.00000000000000       kg/m^3
           density of snow                           =    330.00000000000000       kg/m^3
           emissivity of snow or ice                 =   0.96999999999999997     
           salinity of ice                           =    6.0000000000000000       psu
           salinity of sea                           =    34.700000000000003       psu
           latent heat of evaporation (water)        =    2500000.0000000000       J/m^3
           correction factor for solar radiation     =   0.90000000000000002     
           von Karman constant                       =   0.40000000000000002     
           Stefan-Boltzmann constant                 =    5.6699999999999998E-008  J/s/m^2/K^4

           conversion: degre ==> radian          rad =    1.7453292519943295E-002

           smallest real computer value       rsmall =    1.1102230246251565E-016

 eos_init : equation of state
 ~~~~~~~~
           Namelist nameos : set eos parameters
              flag for eq. of state and N^2  nn_eos   =            0
              model does not use Conservative Temperature

           use of EOS-80 equation of state (pot. temp. and pract. salinity)

           volumic mass of reference           rau0  =    1026.0000000000000       kg/m^3
           1. / rau0                        r1_rau0  =    9.7465886939571145E-004  m^3/kg
           ocean specific heat                 rcp   =    3991.8679571196299       J/Kelvin
           rau0 * rcp                       rau0_rcp =    4095656.5240047402     
           1. / ( rau0 * rcp )           r1_rau0_rcp =    2.4416109948160356E-007

 c1d_init : Initialize 1D model configuration options
 ~~~~~~~~
    Namelist namc1d : set options for the C1D model
       column latitude                 rn_lat1d     =    50.000000000000000     
       column longitude                rn_lon1d     =   -145.00000000000000     
       column localization in a grid   ln_c1d_locpt =  F

 dom_cfg : set the ocean configuration
 ~~~~~~~ 
    ocean model configuration used :   cp_cfg = saz                                                                                                                                                                                                                                                              jp_cfg =            1
    global domain lateral boundaries
       jperio= 0, closed

 dom_glo : domain: data / local 
 ~~~~~~~ 
           data input domain    : jpidta =            3  jpjdta =            3  jpkdta =           51
           global or zoom domain: jpiglo =            3  jpjglo =            3  jpk    =           51
           local domain         : jpi    =            3  jpj    =            3  jpk    =           51

           south-west indices    jpizoom =            1  jpjzoom =            1

           conversion local  ==> data i-index domain
             1   2   3

           conversion data   ==> local  i-index domain
              starting index
             1   2   3
              ending index
             1   2   3

           conversion local  ==> data j-index domain
             1   2   3

           conversion data  ==> local j-index domain
              starting index
             1   2   3
              ending index
             1   2   3

           zoom flags : 
              lzoom   =  F  (T = zoom, F = global )
              lzoom_e =  F  (T = forced closed east  boundary)
              lzoom_w =  F  (T = forced closed west  boundary)
              lzoom_s =  F  (T = forced closed South boundary)
              lzoom_n =  F  (T = forced closed North boundary)

 dom_init : domain initialization
 ~~~~~~~~

 dom_nam  : domain initialization through namelist read
 ~~~~~~~ 
    Namelist namrun
       job number                      nn_no      =            0
       experiment name for output      cn_exp     = SAZ                                                                                                                                                                                                                                                             
       file prefix restart input       cn_ocerst_in= restart                                                                                                                                                                                                                                                         
       restart input directory         cn_ocerst_indir= .                                                                                                                                                                                                                                                               
       file prefix restart output      cn_ocerst_out= restart                                                                                                                                                                                                                                                         
       restart output directory        cn_ocerst_outdir= .                                                                                                                                                                                                                                                               
       restart logical                 ln_rstart  =  F
       start with forward time step    nn_euler   =            1
       control of time step            nn_rstctl  =            0
       number of the first time step   nn_it000   =            1
       number of the last time step    nn_itend   =       131400
       initial calendar date aammjj    nn_date0   =     20100615
       leap year calendar (0/1)        nn_leapy   =            0
       initial state output            nn_istate  =            0
       frequency of restart file       nn_stock   =       398400
       frequency of output file        nn_write   =          240
       multi file dimgout              ln_dimgnnn =  F
       mask land points                ln_mskland =  F
       additional CF standard metadata ln_cfmeta  =  F
       overwrite an existing file      ln_clobber =  F
       NetCDF chunksize (bytes)        nn_chunksz =            0

 ===>>> : W A R N I N G
         ===============

  ln_rstart =.FALSE., nn_euler is forced to 0                                                                                                                                                                                                                    

 ===>>> : W A R N I N G
         ===============

  nstock =       398400  it is forced to       131400                                                                                                                                                                                                            
    The IOIPSL calendar is "noleap", i.e. no leap year

    Namelist namdom : space & time domain
       flag read/compute bathymetry      nn_bathy     =            0
       Depth (if =0 bathy=jpkm1)         rn_bathy     =    0.0000000000000000     
       min depth of the ocean    (>0) or    rn_hmin   =   -3.0000000000000000     
       min number of ocean level (<0)       
       minimum thickness of partial      rn_e3zps_min =    20.000000000000000       (m)
          step level                     rn_e3zps_rat =   0.10000000000000001     
       create mesh/mask file(s)          nn_msh       =            0
            = 0   no file created           
            = 1   mesh_mask                 
            = 2   mesh and mask             
            = 3   mesh_hgr, msh_zgr and mask
       ocean time step                       rn_rdt    =    360.00000000000000     
       asselin time filter parameter         rn_atfp   =   0.10000000000000001     
       acceleration of converge              nn_acc    =            0
         nn_acc=1: surface tracer rdt        rn_rdtmin =    360.00000000000000     
                   bottom  tracer rdt        rdtmax    =    360.00000000000000     
                   depth of transition       rn_rdth   =    800.00000000000000     
       suppression of closed seas (=0)       nn_closea =            0
       online coarsening of dynamical fields ln_crs    =  F
       type of horizontal mesh jphgr_msh           =            1
       longitude of first raw and column T-point ppglam0 =   -150.00000000000000     
       latitude  of first raw and column T-point ppgphi0 =    50.000000000000000     
       zonal      grid-spacing (degrees) ppe1_deg        =   0.10000000000000001     
       meridional grid-spacing (degrees) ppe2_deg        =   0.10000000000000001     
       zonal      grid-spacing (degrees) ppe1_m          =    999999.00000000000     
       meridional grid-spacing (degrees) ppe2_m          =    999999.00000000000     
       ORCA r4, r2 and r05 coefficients  ppsur           =    999999.00000000000     
                                         ppa0            =    999999.00000000000     
                                         ppa1            =    999999.00000000000     
                                         ppkth           =    30.000000000000000     
                                         ppacr           =    10.000000000000000     
       Minimum vertical spacing ppdzmin                  =    1.0000000000000000     
       Maximum depth pphmax                              =    4000.0000000000000     
       Use double tanf function for vertical coordinates ldbletanh =  F
       Double tanh function parameters ppa2              =    999999.00000000000     
                                       ppkth2            =    999999.00000000000     
                                       ppacr2            =    999999.00000000000     

    Namelist namcla
       cross land advection                 nn_cla    =            0

 dom_clo : closed seas 
 ~~~~~~~

 dom_hgr : define the horizontal mesh from ithe following par_oce parameters 
 ~~~~~~~      type of horizontal mesh           jphgr_msh =            1
              position of the first row and     ppglam0  =   -150.00000000000000     
              column grid-point (degrees)       ppgphi0  =    50.000000000000000     
              zonal      grid-spacing (degrees) ppe1_deg =   0.10000000000000001     
              meridional grid-spacing (degrees) ppe2_deg =   0.10000000000000001     
              zonal      grid-spacing (meters)  ppe1_m   =    999999.00000000000     
              meridional grid-spacing (meters)  ppe2_m   =    999999.00000000000     

           geographical mesh on the sphere with regular grid-spacing
           given by ppe1_deg and ppe2_deg

           longitude and e1 scale factors
           ------------------------------
    1 -150.00  -149.95  -150.00  -149.95     7147.7290203207     7147.7290203207     7140.2926528299     7140.2926528299

           latitude and e2 scale factors
           -----------------------------
    1   50.00    50.00    50.05    50.05    11119.8923448546    11119.8923448546    11119.8923448546    11119.8923448546

 dom_zgr : vertical coordinate
 ~~~~~~~
           Namelist namzgr : set vertical coordinate
              z-coordinate - full steps      ln_zco    =  F
              z-coordinate - partial steps   ln_zps    =  T
              s- or hybrid z-s-coordinate    ln_sco    =  F
              ice shelf cavities             ln_isfcav =  F

     zgr_z   : Reference vertical z-coordinates
     ~~~~~~~
            Value of coefficients for vertical mesh:
                  zsur =   -2182.3317053288456     
                  za0  =    94.889470834131131     
                  za1  =    94.459708285161383     
                  zkth =    30.000000000000000     
                  zacr =    10.000000000000000     

               Reference z-coordinate depth and scale factors:
          level  gdept_1d  gdepw_1d  e3t_1d   e3w_1d  
             1     0.51     0.00     1.06     1.00
             2     1.64     1.06     1.20     1.13
             3     2.92     2.26     1.37     1.28
             4     4.39     3.63     1.57     1.47
             5     6.09     5.21     1.83     1.69
             6     8.06     7.04     2.13     1.97
             7    10.37     9.17     2.51     2.31
             8    13.10    11.68     2.96     2.72
             9    16.32    14.64     3.51     3.22
            10    20.16    18.16     4.18     3.83
            11    24.73    22.34     4.99     4.56
            12    30.19    27.34     5.97     5.45
            13    36.73    33.31     7.15     6.53
            14    44.57    40.47     8.57     7.83
            15    53.97    49.06    10.28     9.39
            16    65.25    59.35    12.33    11.26
            17    78.75    71.70    14.76    13.49
            18    94.92    86.48    17.64    16.14
            19   114.21   104.14    21.04    19.27
            20   137.19   125.21    25.01    22.95
            21   164.44   150.24    29.61    27.23
            22   196.64   179.88    34.89    32.16
            23   234.47   214.80    40.89    37.80
            24   278.66   255.72    47.61    44.16
            25   329.93   303.36    55.04    51.24
            26   388.95   358.43    63.12    59.00
            27   456.34   421.57    71.75    67.37
            28   532.61   493.34    80.83    76.25
            29   618.09   574.18    90.17    85.47
            30   712.98   664.35    99.61    94.89
            31   817.27   763.96   108.95   104.30
            32   930.79   872.90   118.02   113.53
            33  1053.18   990.90   126.66   122.41
            34  1183.93  1117.54   134.74   130.78
            35  1322.44  1252.26   142.17   138.54
            36  1468.03  1394.40   148.89   145.62
            37  1619.98  1543.26   154.89   151.98
            38  1777.57  1698.11   160.17   157.61
            39  1940.09  1858.25   164.77   162.55
            40  2106.89  2023.00   168.74   166.83
            41  2277.38  2191.71   172.13   170.50
            42  2450.99  2363.82   175.02   173.64
            43  2627.26  2538.82   177.45   176.29
            44  2805.77  2716.26   179.50   178.52
            45  2986.14  2895.74   181.21   180.39
            46  3168.08  3076.93   182.63   181.95
            47  3351.32  3259.55   183.81   183.25
            48  3535.64  3443.36   184.79   184.32
            49  3720.85  3628.14   185.60   185.22
            50  3906.79  3813.74   186.27   185.95
            51  4093.35  4000.00   186.82   186.56

     zgr_bat : defines level and meter bathymetry
     ~~~~~~~

          bathymetry field: flat basin
          Depth = depthw(jpkm1)
 Minimum ocean depth:    3.6303987627804872       minimum number of ocean levels :            3

     zgr_zps : z-coordinate with partial steps
     ~~~~~~~ 
               mbathy is recomputed : bathy_level file is NOT used

     zgr_bot_level : ocean bottom k-index of T-, U-, V- and W-levels 
     ~~~~~~~~~~~~~

     zgr_top_level : ocean top k-index of T-, U-, V- and W-levels 
     ~~~~~~~~~~~~~

 dommsk : ocean mask 
 ~~~~~~
    Namelist namlbc
       lateral momentum boundary cond.    rn_shlat  =    0.0000000000000000     
       consistency with analytical form   ln_vorlat =  F
    ocean lateral  free-slip 

 cor_c1d : Coriolis factor at T-point
 ~~~~~~~

 dom_stp : time stepping setting
 ~~~~~~~
                synchronous time stepping
                dynamics and tracer time step =   0.10000000000000001       hours

 dom_ctl : extrema of the masked scale factors
 ~~~~~~~
              e1t maxi:    7132.85 at i =     2 j=     2
              e1t mini:    7132.85 at i =     2 j=     2
              e2t maxi:   11119.89 at i =     2 j=     2
              e2t mini:   11119.89 at i =     2 j=     2
  
 istate_ini : Initialization of the dynamics and tracers
 ~~~~~~~~~~

 dta_tsd_init : Temperature & Salinity data 
 ~~~~~~~~~~~~ 
    Namelist namtsd
       Initialisation of ocean T & S with T &S input data   ln_tsd_init   =  T
       damping of ocean T & S toward T &S input data        ln_tsd_tradmp =  F


 dta_tsd : Temperature & Salinity data
 ~~~~~~~
           namtsd Namelist
           list of files and frequency (>0: in hours ; <0 in months)
                root filename: ./SAZL51_initial_WOA13_annual variable name: temperature
                frequency:   -12.000000000000000       time interp:  F  climatology:  T  weights    :  pairing    :  data type: yearly   land/sea mask:
                root filename: ./SAZL51_initial_WOA13_annual variable name: salinity
                frequency:   -12.000000000000000       time interp:  F  climatology:  T  weights    :  pairing    :  data type: yearly   land/sea mask:

 dta_uvd_init : U & V current data 
 ~~~~~~~~~~~~ 
    Namelist namc1d_uvd : Set flags
       Initialization of ocean U & V current with input data   ln_uvd_init   =  F
       Damping of ocean U & V current toward input data        ln_uvd_dyndmp =  F


    U & V current data not used
  *** Info used values : 
    date ndastp                                      :     20100614
    number of elapsed days since the begining of run :    0.0000000000000000     

 =======>> 1/2 time step before the start of the run DATE Y/M/D =   2010/ 6/14  nsec_day:   86220  nsec_week:  172620
======>> time-step =       1      New day, DATE Y/M/D = 2010/06/15      nday_year = 166
         nsec_year = 14256180   nsec_month = 1209780   nsec_day =   180
   nsec_week =   172980
                     iom_nf90_open ~~~ open existing file: ./SAZL51_initial_WOA13_annual.nc in READ mode
                    ---> ./SAZL51_initial_WOA13_annual.nc OK
           read temperature (rec:      1) in ./SAZL51_initial_WOA13_annual.nc ok
                     iom_nf90_open ~~~ open existing file: ./SAZL51_initial_WOA13_annual.nc in READ mode
                    ---> ./SAZL51_initial_WOA13_annual.nc OK
           read salinity (rec:      1) in ./SAZL51_initial_WOA13_annual.nc ok
fld_read: var temperature kt =        1 ( 165.0021 days), Y/M/D = 2010/06/15, record:   0001 (days    0.0000 <->  365.0000)
fld_read: var salinity kt =        1 ( 165.0021 days), Y/M/D = 2010/06/15, record:   0001 (days    0.0000 <->  365.0000)
  temperature Levitus 

   level = 1


        1
   3   6.27
   level =           25


        1
   3   3.73
   level =           50


        1
   3   0.95

  salinity Levitus 

   level = 1


        1
   3  33.95
   level =           25


        1
   3  34.20
   level =           50


        1
   3  34.72

 dta_tsd: deallocte T & S arrays as they are only use to initialize the run

 sbc_init : surface boundary condition setting
 ~~~~~~~~ 
         Namelist namsbc (partly overwritten with CPP key setting)
            frequency update of sbc (and ice)             nn_fsbc     =            1
            Type of sbc : 
               analytical formulation                     ln_ana      =  F
               flux       formulation                     ln_flx      =  F
               CLIO bulk  formulation                     ln_blk_clio =  F
               CORE bulk  formulation                     ln_blk_core =  T
               MFS  bulk  formulation                     ln_blk_mfs  =  F
               ocean-atmosphere coupled formulation       ln_cpl      =  F
               forced-coupled mixed formulation           ln_mixcpl   =  F
               OASIS coupling (with atm or sas)           lk_oasis    =  F
               components of your executable              nn_components =            0
               Multicategory heat flux formulation (LIM3) nn_limflx   =           -1
            Misc. options of sbc : 
               Patm gradient added in ocean & ice Eqs.    ln_apr_dyn  =  F
               ice management in the sbc (=0/1/2/3)       nn_ice      =            0
               ice-ocean embedded/levitating (=0/1/2)     nn_ice_embd =            1
               daily mean to diurnal cycle qsr            ln_dm2dc    =  F
               runoff / runoff mouths                     ln_rnf      =  F
               iceshelf formulation                       nn_isf      =            0
               Sea Surface Restoring on SST and/or SSS    ln_ssr      =  F
               FreshWater Budget control  (=0/1/2)        nn_fwb      =            0
               closed sea (=0/1) (set in namdom)          nn_closea   =            0
               n. of iterations if land-sea-mask applied  nn_lsm      =            0
               Use of per-category fluxes (nn_limflx = -1) 

               CORE bulk formulation

 sbc_ssm : sea surface mean fields, nn_fsbc=1 : instantaneous values
 ~~~~~~~ 
           default initialisation of ss?_m arrays

 dyn_nept_init : Simplified Neptune module
 ~~~~~~~~~~~~~
  -->   Reading namelist namdyn_nept parameters:
        ln_neptsimp          =  F


 zdf_init: vertical physics
 ~~~~~~~~
    Namelist namzdf : set vertical mixing mixing parameters
       vertical eddy viscosity             rn_avm0   =    1.2000000000000000E-004
       vertical eddy diffusivity           rn_avt0   =    1.2000000000000000E-005
       constant background or profile      nn_avb    =            0
       horizontal variation for avtb       nn_havtb  =            0
       time splitting / backward scheme    ln_zdfexp =  F
       number of time step                 nn_zdfexp =            3
       enhanced vertical diffusion         ln_zdfevd =  F
          applied on momentum (=1/0)       nn_evdm   =            0
       vertical coefficient for evd        rn_avevd  =    100.00000000000000     
       non-penetrative convection (npc)    ln_zdfnpc =  F
       npc call  frequency                 nn_npc    =            1
       npc print frequency                 nn_npcp   =          365

    vertical mixing option :
       GLS dependent eddy coefficients

    convection :
       use the GLS closure scheme

 zdf_bfr_init : momentum bottom friction
 ~~~~~~~~~~~~~
    Namelist nam_bfr : set bottom friction parameters
       quadratic bottom friction
       friction coef.   rn_bfri2  =    1.0000000000000000E-003
       Max. coef. (log case)   rn_bfri2_max  =   0.10000000000000001     
       background tke   rn_bfeb2  =    2.5000000000000001E-003
       log formulation   ln_bfr2d =  F
       bottom roughness  rn_bfrz0 [m] =    3.0000000000000001E-003
       implicit bottom friction switch                ln_bfrimp  =  T

 zdf_gls_init : gls turbulent closure scheme
 ~~~~~~~~~~~~
    Namelist namzdf_gls : set gls mixing parameters
       minimum value of en                           rn_emin        =    9.9999999999999995E-008
       minimum value of eps                          rn_epsmin      =    9.9999999999999998E-013
       Limit dissipation rate under stable stratif.  ln_length_lim  =  T
       Galperin limit (Standard: 0.53, Holt: 0.26)   rn_clim_galp   =   0.26700000000000002     
       TKE Surface boundary condition                nn_bc_surf     =            1
       TKE Bottom boundary condition                 nn_bc_bot      =            1
       Modify psi Schmidt number (wb case)           ln_sigpsi      =  T
       Craig and Banner coefficient                  rn_crban       =    100.00000000000000     
       Charnock coefficient                          rn_charn       =    70000.000000000000     
       Surface roughness formula                     nn_z0_met      =            2
       Wave height frac. (used if nn_z0_met=2)       rn_frac_hs     =    1.3000000000000000     
       Stability functions                           nn_stab_func   =            2
       Type of closure                               nn_clos        =            1
       Surface roughness (m)                         rn_hsro        =    2.0000000000000000E-002
       Bottom roughness (m) (nambfr namelist)        rn_bfrz0       =    3.0000000000000001E-003
 The choosen closure is k-eps
 Stability functions from Canuto A

 Limit values
 ~~~~~~~~~~~~
 Parameter  m =    1.5000000000000000     
 Parameter  n =   -1.0000000000000000     
 Parameter  p =    3.0000000000000000     
 rpsi1   =    1.4399999999999999     
 rpsi2   =    1.9199999999999999     
 rpsi3m  =  -0.62900000000000000     
 rpsi3p  =    1.0000000000000000     
 rsc_tke =    1.0000000000000000     
 rsc_psi =    1.2000000000000000     
 rsc_psi0 =    2.0061728395061729     
 rc0     =   0.52680000000000005     

 Shear free turbulence parameters:
 rcm_sf  =   0.73099999999999998     
 ra_sf   =   -1.5000000000000004     
 rl_sf   =   0.24342942450908961     

  ===>>>> : Initialisation of en and mxln by background values

 ldf_tra_init : lateral tracer physics
 ~~~~~~~~~~~~ 
    Namelist namtra_ldf : lateral mixing parameters (type, direction, coefficients)
       laplacian operator            ln_traldf_lap   =  T
       bilaplacian operator          ln_traldf_bilap =  F
       iso-level                     ln_traldf_level =  F
       horizontal (geopotential)     ln_traldf_hor   =  T
       iso-neutral                   ln_traldf_iso   =  F
       iso-neutral (Griffies)        ln_traldf_grif  =  F
       Griffies strmfn diagnostics   ln_traldf_gdia  =  F
       lateral eddy diffusivity      rn_aht_0        =    0.0000000000000000     
       background hor. diffusivity   rn_ahtb_0       =    0.0000000000000000     
       eddy induced velocity coef.   rn_aeiv_0       =    0.0000000000000000     
       maximum isoppycnal slope      rn_slpmax       =    1.0000000000000000E-002
       pure lateral mixing in ML     ln_triad_iso    =  F
       lateral mixing on bottom      ln_botmix_grif  =  F

           tracer mixing coef. = constant (default option)
           harmonic tracer diffusion (default)

       constant eddy diffusivity coef.   ahtu = ahtv = ahtw = aht0 =    0.0000000000000000     

 ldf_dyn : lateral momentum physics
 ~~~~~~~
    Namelist namdyn_ldf : set lateral mixing parameters
       laplacian operator                      ln_dynldf_lap   =  F
       bilaplacian operator                    ln_dynldf_bilap =  F
       iso-level                               ln_dynldf_level =  F
       horizontal (geopotential)               ln_dynldf_hor   =  T
       iso-neutral                             ln_dynldf_iso   =  F
       horizontal laplacian eddy viscosity     rn_ahm_0_lap    =    40000.000000000000     
       background viscosity                    rn_ahmb_0       =    0.0000000000000000     
       horizontal bilaplacian eddy viscosity   rn_ahm_0_blp    =    0.0000000000000000     
       upper limit for laplacian eddy visc     rn_ahm_m_lap    =    40000.000000000000     
       upper limit for bilap eddy viscosity    rn_ahm_m_blp    =   -1000000000000.0000     
    momentum mixing coef. = constant  (default option)
    harmonic momentum diff. (default)

 inildf: constant eddy viscosity coef. 
 ~~~~~~
         ahm1 = ahm2 = ahm0 =     40000.000000000000     

 tra_qsr_init : penetration of the surface solar radiation
 ~~~~~~~~~~~~
    Namelist namtra_qsr : set the parameter of penetration
       Light penetration (T) or not (F)         ln_traqsr  =  T
       RGB (Red-Green-Blue) light penetration   ln_qsr_rgb =  T
       2 band               light penetration   ln_qsr_2bd =  F
       bio-model            light penetration   ln_qsr_bio =  F
       light penetration for ice-model LIM3     ln_qsr_ice =  T
       RGB : Chl data (=1/2) or cst value (=0)  nn_chldta  =            1
       RGB & 2 bands: fraction of light (rn_si1)    rn_abs =   0.57999999999999996     
       RGB & 2 bands: shortess depth of extinction  rn_si0 =   0.34999999999999998     
       2 bands: longest depth of extinction         rn_si1 =    23.000000000000000     

          R-G-B   light penetration - 2D Chl data 

 trc_oce_rgb : Initialisation of the optical look-up table
 ~~~~~~~~~~~ 
       RGB longest depth of extinction    r_si2 =    61.804697156983934     
     jc =           1   Chl =    1.0000000000000000E-002   irgb =            1
     jc =           2   Chl =    1.0999999999999999E-002   irgb =            2
     jc =           3   Chl =    1.2999999999999999E-002   irgb =            3
     jc =           4   Chl =    1.4000000000000000E-002   irgb =            4
     jc =           5   Chl =    1.6000000000000000E-002   irgb =            5
     jc =           6   Chl =    1.7999999999999999E-002   irgb =            6
     jc =           7   Chl =    2.0000000000000000E-002   irgb =            7
     jc =           8   Chl =    2.1999999999999999E-002   irgb =            8
     jc =           9   Chl =    2.5000000000000001E-002   irgb =            9
     jc =          10   Chl =    2.8000000000000001E-002   irgb =           10
     jc =          11   Chl =    3.2000000000000001E-002   irgb =           11
     jc =          12   Chl =    3.5000000000000003E-002   irgb =           12
     jc =          13   Chl =    4.0000000000000001E-002   irgb =           13
     jc =          14   Chl =    4.4999999999999998E-002   irgb =           14
     jc =          15   Chl =    5.0000000000000003E-002   irgb =           15
     jc =          16   Chl =    5.6000000000000001E-002   irgb =           16
     jc =          17   Chl =    6.3000000000000000E-002   irgb =           17
     jc =          18   Chl =    7.0999999999999994E-002   irgb =           18
     jc =          19   Chl =    7.9000000000000001E-002   irgb =           19
     jc =          20   Chl =    8.8999999999999996E-002   irgb =           20
     jc =          21   Chl =   0.10000000000000001        irgb =           21
     jc =          22   Chl =   0.11200000000000000        irgb =           22
     jc =          23   Chl =   0.12600000000000000        irgb =           23
     jc =          24   Chl =   0.14099999999999999        irgb =           24
     jc =          25   Chl =   0.15800000000000000        irgb =           25
     jc =          26   Chl =   0.17799999999999999        irgb =           26
     jc =          27   Chl =   0.20000000000000001        irgb =           27
     jc =          28   Chl =   0.22400000000000000        irgb =           28
     jc =          29   Chl =   0.25100000000000000        irgb =           29
     jc =          30   Chl =   0.28199999999999997        irgb =           30
     jc =          31   Chl =   0.31600000000000000        irgb =           31
     jc =          32   Chl =   0.35499999999999998        irgb =           32
     jc =          33   Chl =   0.39800000000000002        irgb =           33
     jc =          34   Chl =   0.44700000000000001        irgb =           34
     jc =          35   Chl =   0.50100000000000000        irgb =           35
     jc =          36   Chl =   0.56200000000000006        irgb =           36
     jc =          37   Chl =   0.63100000000000001        irgb =           37
     jc =          38   Chl =   0.70799999999999996        irgb =           38
     jc =          39   Chl =   0.79400000000000004        irgb =           39
     jc =          40   Chl =   0.89100000000000001        irgb =           40
     jc =          41   Chl =    1.0000000000000000        irgb =           41
     jc =          42   Chl =    1.1220000000000001        irgb =           42
     jc =          43   Chl =    1.2589999999999999        irgb =           43
     jc =          44   Chl =    1.4130000000000000        irgb =           44
     jc =          45   Chl =    1.5850000000000000        irgb =           45
     jc =          46   Chl =    1.7780000000000000        irgb =           46
     jc =          47   Chl =    1.9950000000000001        irgb =           47
     jc =          48   Chl =    2.2389999999999999        irgb =           48
     jc =          49   Chl =    2.5120000000000000        irgb =           49
     jc =          50   Chl =    2.8180000000000001        irgb =           50
     jc =          51   Chl =    3.1619999999999999        irgb =           51
     jc =          52   Chl =    3.5480000000000000        irgb =           52
     jc =          53   Chl =    3.9809999999999999        irgb =           53
     jc =          54   Chl =    4.4669999999999996        irgb =           54
     jc =          55   Chl =    5.0119999999999996        irgb =           55
     jc =          56   Chl =    5.6230000000000002        irgb =           56
     jc =          57   Chl =    6.3099999999999996        irgb =           57
     jc =          58   Chl =    7.0789999999999997        irgb =           58
     jc =          59   Chl =    7.9429999999999996        irgb =           59
     jc =          60   Chl =    8.9120000000000008        irgb =           60
     jc =          61   Chl =    10.000000000000000        irgb =           61
         level of light extinction =           41  ref depth =    2363.8229403935329       m

         Chlorophyll read in a file

 tra_qsr_init : Solar penetration function of read chlorophyll
 ~~~~~~~~~~~~
           namtra_qsr Namelist
           list of files and frequency (>0: in hours ; <0 in months)
                root filename: ./stSAZ_chlorophyll variable name: CHL
                frequency:   -1.0000000000000000       time interp:  T  climatology:  T  weights    :  pairing    :  data type: yearly   land/sea mask:

 tra_bbc : Bottom Boundary Condition (bbc), apply a Geothermal heating
 ~~~~~~~   
    Namelist nambbc : set bbc parameters
       Apply a geothermal heating at ocean bottom   ln_trabbc     =  F
       type of geothermal flux                      nn_geoflx     =            0
       Constant geothermal flux value               rn_geoflx_cst =    8.6400000000000005E-002

       *** no geothermal heat flux

 tra_dmp_init : T and S newtonian relaxation
 ~~~~~~~
    Namelist namtra_dmp : set relaxation parameters
       Apply relaxation   or not       ln_tradmp =  F
       mixed layer damping option      nn_zdmp   =            0
       Damping file name               cn_resto  = resto.nc                                                                                                                                                                                                


 tra_adv_init : choice/control of the tracer advection scheme
 ~~~~~~~~~~~
    Namelist namtra_adv : chose a advection scheme for tracers
       2nd order advection scheme     ln_traadv_cen2    =  F
       TVD advection scheme           ln_traadv_tvd     =  T
       MUSCL  advection scheme        ln_traadv_muscl   =  F
       MUSCL2 advection scheme        ln_traadv_muscl2  =  F
       UBS    advection scheme        ln_traadv_ubs     =  F
       QUICKEST advection scheme      ln_traadv_qck     =  F
       upstream scheme within muscl   ln_traadv_msc_ups =  F
       TVD advection scheme with zts  ln_traadv_tvd_zts =  F

          TVD       scheme is used

 tra_adv_mle_init : mixed layer eddy (MLE) advection acting on tracers
 ~~~~~~~~~~~~~~~~
    Namelist namtra_adv_mle : mixed layer eddy advection on tracers
       use mixed layer eddy (MLE, i.e. Fox-Kemper param) (T/F)      ln_mle    =  T
       MLE type: =0 standard Fox-Kemper ; =1 new formulation        nn_mle    =            1
       magnitude of the MLE (typical value: 0.06 to 0.08)           rn_ce     =    5.9999999999999998E-002
       scale of ML front (ML radius of deformation) (rn_mle=0)      rn_lf     =    5000.0000000000000      m
       maximum time scale of MLE                    (rn_mle=0)      rn_time   =    172800.00000000000      s
       reference latitude (degrees) of MLE coef.    (rn_mle=1)      rn_lat    =    20.000000000000000      deg
       space interp. of MLD at u-(v-)pts (0=min,1=averaged,2=max)   nn_mld_uv =            0
       =1 no MLE in case of convection ; =0 always MLE              nn_conv   =            0
       Density difference used to define ML for FK              rn_rho_c_mle  =    1.0000000000000000E-002

    Mixed Layer Eddy induced transport added to tracer advection
    New formulation

       ML buoyancy criteria =    9.5581384015594543E-005  m/s2 
       associated ML density criteria defined in zdfmxl =    1.0000000000000000E-002 kg/m3

 tra_ldf_init : lateral tracer diffusive operator
 ~~~~~~~~~~~
    Namelist namtra_ldf already read in ldftra module
    see ldf_tra_init report for lateral mixing parameters


           laplacian operator

 tra:ldf_ano : lateral diffusion acting on the full fields
 ~~~~~~~~~~~

 tra_zdf_init : vertical tracer physics scheme
 ~~~~~~~~~~~
               Implicit (euler backward) scheme

 dyn_dmp_init : U and V current Newtonian damping
 ~~~~~~~~~~~~
    Namelist namc1d_dyndmp : Set damping flag
       add a damping term or not       ln_dyndmp =  F
    Namelist namtra_dmp    : Set damping parameters
       Apply relaxation   or not       ln_tradmp =  F
       mixed layer damping option      nn_zdmp   =            0
       Damping file name               cn_resto  = resto.nc                                                                                                                                                                                                


 dyn_adv_init : choice/control of the momentum advection scheme
 ~~~~~~~~~~~
        Namelist namdyn_adv : chose a advection formulation & scheme for momentum
           Vector/flux form (T/F)                           ln_dynadv_vec  =  T
           = 0 standard scheme  ; =1 Hollingsworth scheme   nn_dynkeg      =            0
           2nd order centred advection scheme               ln_dynadv_cen2 =  F
           3rd order UBS advection scheme                   ln_dynadv_ubs  =  F
           Sub timestepping of vertical advection           ln_dynzad_zts  =  F

          vector form : keg + zad + vor is used
 with Centered standard keg scheme

 dyn_vor_init : vorticity term : read namelist and control the consistency
 ~~~~~~~~~~~~
         Namelist namdyn_vor : choice of the vorticity term scheme
            energy    conserving scheme                ln_dynvor_ene =  F
            enstrophy conserving scheme                ln_dynvor_ens =  F
            mixed enstrophy/energy conserving scheme   ln_dynvor_mix =  F
            enstrophy and energy conserving scheme     ln_dynvor_een =  T
            enstrophy and energy conserving scheme (old) ln_dynvor_een_old=  F

          Vector form advection : vorticity = Coriolis + relative vorticity

          vorticity scheme : energy and enstrophy conserving scheme

 dyn_ldf_init : Choice of the lateral diffusive operator on dynamics
 ~~~~~~~~~~~
        Namelist nam_dynldf : set lateral mixing parameters (type, direction, coefficients)
           laplacian operator          ln_dynldf_lap   =  F
           bilaplacian operator        ln_dynldf_bilap =  F
           iso-level                   ln_dynldf_level =  F
           horizontal (geopotential)   ln_dynldf_hor   =  T
           iso-neutral                 ln_dynldf_iso   =  F

 ===>>> : W A R N I N G
         ===============

           neither laplacian nor bilaplacian operator set for dynamics

               neither laplacian nor bilaplacian schemes used

 dyn_hpg_init : hydrostatic pressure gradient initialisation
 ~~~~~~~~~~~~
    Namelist namdyn_hpg : choice of hpg scheme
       z-coord. - full steps                             ln_hpg_zco    =  F
       z-coord. - partial steps (interpolation)          ln_hpg_zps    =  T
       s-coord. (standard jacobian formulation)          ln_hpg_sco    =  F
       s-coord. (standard jacobian formulation) for isf  ln_hpg_isf    =  F
       s-coord. (Density Jacobian: Cubic polynomial)     ln_hpg_djc    =  F
       s-coord. (Pressure Jacobian: Cubic polynomial)    ln_hpg_prj    =  F
       time stepping: centered (F) or semi-implicit (T)  ln_dynhpg_imp =  F

 dyn_zdf_init : vertical dynamics physics scheme
 ~~~~~~~~~~~
               Implicit (euler backward) scheme

 dyn_spg_init : choice of the surface pressure gradient scheme
 ~~~~~~~~~~~
      Explicit free surface                  lk_dynspg_exp =  F
      Free surface with time splitting       lk_dynspg_ts  =  F
      Filtered free surface cst volume       lk_dynspg_flt =  F

      explicit free surface

 icbini :   Namelist namberg ln_icebergs = F , NO icebergs used
 ~~~~~~~~ 

 ===>>> : W A R N I N G
         ===============

 W A R N I N G:  end of record or file while reading namelist namsto in configuration namelist iostat =   -1

 sto_par_init : stochastic parameterization
 ~~~~~~~~~~~~
    Namelist namsto : stochastic parameterization
       restart stochastic parameters           ln_rststo     =  F
       read seed of RNG from restart file      ln_rstseed    =  T
       suffix of sto restart name (input)      cn_storst_in  = restart_sto                     
       suffix of sto restart name (output)     cn_storst_out = restart_sto                     
       stochastic equation of state            ln_sto_eos    =  F
       number of degrees of freedom            nn_sto_eos    =            1
       random walk horz. std (in grid points)  rn_eos_stdxy  =    1.3999999999999999     
       random walk vert. std (in grid points)  rn_eos_stdz   =   0.69999999999999996     
       random walk tcor (in timesteps)         rn_eos_tcor   =    1440.0000000000000     
       order of autoregressive  processes      nn_eos_ord    =            1
       passes of Laplacian filter              nn_eos_flt    =            0
       limitation factor                       rn_eos_lim    =    2.0000000000000000     

    stochastic parameterization :

 dia_ptr_init : poleward transport and msf initialization
 ~~~~~~~~~~~~
    Namelist namptr : set ptr parameters
       Poleward heat & salt transport (T) or not (F)      ln_diaptr  =  F
       Global (F) or glo/Atl/Pac/Ind/Indo-Pac basins      ln_subbas  =  F

 dia_hsb_init : check the heat and salt budgets
 ~~~~~~~~ 

 dia_hsb_init : check the heat and salt budgets
 ~~~~~~~~~~~~
    Namelist namhsb : set hsb parameters
       Switch for hsb diagnostic (T) or not (F)  ln_diahsb  =  F


  trd_init : Momentum/Tracers trends
  ~~~~~~~~~~
    Namelist namtrd : set trends parameters
       global domain averaged dyn & tra trends   ln_glo_trd  =  F
       U & V trends: 3D output                   ln_dyn_trd  =  F
       U & V trends: Mixed Layer averaged        ln_dyn_mxl  =  F
       T & S trends: 3D output                   ln_tra_trd  =  F
       T & S trends: Mixed Layer averaged        ln_tra_mxl  =  F
       Kinetic   Energy trends                   ln_KE_trd   =  F
       Potential Energy trends                   ln_PE_trd   =  F
       Barotropic vorticity trends               ln_vor_trd  =  F
       frequency of trends diagnostics (glo)     nn_trd      =          365
 Euler time step switch is            0

AAAAAAAA


 sbc_blk_core : flux formulation for ocean surface boundary condition
 ~~~~~~~~~~~~
           namsbc_core Namelist
           list of files and frequency (>0: in hours ; <0 in months)
                root filename: ./stSAZ_eraINT_165_y2010 variable name: var165
                frequency:    3.0000000000000000       time interp:  T  climatology:  T  weights    :  pairing    :  data type: yearly   land/sea mask:
                root filename: ./stSAZ_eraINT_166_y2010 variable name: var166
                frequency:    3.0000000000000000       time interp:  T  climatology:  T  weights    :  pairing    :  data type: yearly   land/sea mask:
                root filename: ./stSAZ_eraINT_qs_y2009 variable name: qs
                frequency:    3.0000000000000000       time interp:  T  climatology:  T  weights    :  pairing    :  data type: yearly   land/sea mask:
                root filename: ./stSAZ_eraINT_169_y2010 variable name: var169
                frequency:    24.000000000000000       time interp:  F  climatology:  T  weights    :  pairing    :  data type: yearly   land/sea mask:
                root filename: ./stSAZ_eraINT_175_y2010 variable name: var175
                frequency:    24.000000000000000       time interp:  F  climatology:  T  weights    :  pairing    :  data type: yearly   land/sea mask:
                root filename: ./stSAZ_eraINT_167_y2010 variable name: var167
                frequency:    3.0000000000000000       time interp:  T  climatology:  T  weights    :  pairing    :  data type: yearly   land/sea mask:
                root filename: ./stSAZ_eraINT_228_y2010 variable name: var228
                frequency:    24.000000000000000       time interp:  F  climatology:  T  weights    :  pairing    :  data type: yearly   land/sea mask:
                root filename: ./stSAZ_eraINT_144_y2010 variable name: var144
                frequency:    24.000000000000000       time interp:  F  climatology:  T  weights    :  pairing    :  data type: yearly   land/sea mask:
                     iom_nf90_open ~~~ open existing file: ./stSAZ_eraINT_165_y2010.nc in READ mode
                    ---> ./stSAZ_eraINT_165_y2010.nc OK
           read var165 (rec:   1320) in ./stSAZ_eraINT_165_y2010.nc ok
fld_init : time-interpolation for var165 read previous record =   1320 at time =  164.94 days
                     iom_nf90_open ~~~ open existing file: ./stSAZ_eraINT_166_y2010.nc in READ mode
                    ---> ./stSAZ_eraINT_166_y2010.nc OK
           read var166 (rec:   1320) in ./stSAZ_eraINT_166_y2010.nc ok
fld_init : time-interpolation for var166 read previous record =   1320 at time =  164.94 days
                     iom_nf90_open ~~~ open existing file: ./stSAZ_eraINT_qs_y2009.nc in READ mode
                    ---> ./stSAZ_eraINT_qs_y2009.nc OK
           read qs (rec:   1320) in ./stSAZ_eraINT_qs_y2009.nc ok
fld_init : time-interpolation for qs read previous record =   1320 at time =  164.94 days
                     iom_nf90_open ~~~ open existing file: ./stSAZ_eraINT_167_y2010.nc in READ mode
                    ---> ./stSAZ_eraINT_167_y2010.nc OK
           read var167 (rec:   1320) in ./stSAZ_eraINT_167_y2010.nc ok
fld_init : time-interpolation for var167 read previous record =   1320 at time =  164.94 days
           read var165 (rec:   1321) in ./stSAZ_eraINT_165_y2010.nc ok
           read var166 (rec:   1321) in ./stSAZ_eraINT_166_y2010.nc ok
           read qs (rec:   1321) in ./stSAZ_eraINT_qs_y2009.nc ok
                     iom_nf90_open ~~~ open existing file: ./stSAZ_eraINT_169_y2010.nc in READ mode
                    ---> ./stSAZ_eraINT_169_y2010.nc OK
           read var169 (rec:    166) in ./stSAZ_eraINT_169_y2010.nc ok
                     iom_nf90_open ~~~ open existing file: ./stSAZ_eraINT_175_y2010.nc in READ mode
                    ---> ./stSAZ_eraINT_175_y2010.nc OK
           read var175 (rec:    166) in ./stSAZ_eraINT_175_y2010.nc ok
           read var167 (rec:   1321) in ./stSAZ_eraINT_167_y2010.nc ok
                     iom_nf90_open ~~~ open existing file: ./stSAZ_eraINT_228_y2010.nc in READ mode
                    ---> ./stSAZ_eraINT_228_y2010.nc OK
           read var228 (rec:    166) in ./stSAZ_eraINT_228_y2010.nc ok
                     iom_nf90_open ~~~ open existing file: ./stSAZ_eraINT_144_y2010.nc in READ mode
                    ---> ./stSAZ_eraINT_144_y2010.nc OK
           read var144 (rec:    166) in ./stSAZ_eraINT_144_y2010.nc ok
fld_read: var var165 kt =        1 ( 165.0021 days), Y/M/D = 2010/06/15, records b/a:   1320/  1321 (days  164.9375/ 165.0625)
 it_offset is :            0
fld_read: var var166 kt =        1 ( 165.0021 days), Y/M/D = 2010/06/15, records b/a:   1320/  1321 (days  164.9375/ 165.0625)
 it_offset is :            0
fld_read: var qs kt =        1 ( 165.0021 days), Y/M/D = 2010/06/15, records b/a:   1320/  1321 (days  164.9375/ 165.0625)
 it_offset is :            0
fld_read: var var169 kt =        1 ( 165.0021 days), Y/M/D = 2010/06/15, record:   0166 (days  165.0000 <->  166.0000)
fld_read: var var175 kt =        1 ( 165.0021 days), Y/M/D = 2010/06/15, record:   0166 (days  165.0000 <->  166.0000)
fld_read: var var167 kt =        1 ( 165.0021 days), Y/M/D = 2010/06/15, records b/a:   1320/  1321 (days  164.9375/ 165.0625)
 it_offset is :            0
fld_read: var var228 kt =        1 ( 165.0021 days), Y/M/D = 2010/06/15, record:   0166 (days  165.0000 <->  166.0000)
fld_read: var var144 kt =        1 ( 165.0021 days), Y/M/D = 2010/06/15, record:   0166 (days  165.0000 <->  166.0000)
           nit000-1 surface forcing fields set to nit000

 zdf_bfr : Set bottom friction coefficient (non-linear case)
 ~~~~~~~~

 zdf_mxl : mixed layer depth
 ~~~~~~~ 

 tra_sbc : TRAcer Surface Boundary Condition
 ~~~~~~~ 

 tra_qsr : penetration of the surface solar radiation
 ~~~~~~~
                     iom_nf90_open ~~~ open existing file: ./stSAZ_chlorophyll.nc in READ mode
                    ---> ./stSAZ_chlorophyll.nc OK
           read CHL (rec:      5) in ./stSAZ_chlorophyll.nc ok
fld_init : time-interpolation for CHL read previous record =      5 at time =  135.50 days
           read CHL (rec:      6) in ./stSAZ_chlorophyll.nc ok
fld_read: var CHL kt =        1 ( 165.0021 days), Y/M/D = 2010/06/15, records b/a:   0005/  0006 (days  135.5000/ 166.0000)
 it_offset is :            0

 tra_zdf_imp : implicit vertical mixing on TRA
 ~~~~~~~~~~~ 

 tra_nxt : achieve the time stepping by Asselin filter and array swap
 ~~~~~~~

 dyn_cor_c1d : total vorticity trend in 1D
 ~~~~~~~~~~

 dyn_zdf_imp : vertical momentum diffusion implicit operator
 ~~~~~~~~~~~ 

 dyn_nxt_c1d : time stepping on 1D configuation
 ~~~~~~~~~~~

 stp_ctl : time-stepping control
 ~~~~~~~
      file   : time.step                                                                        open ok
      unit   =           20
      status = REPLACE
      form   = FORMATTED
      access = SEQUENTIAL

  ==>> time-step=            1  abs(U) max:    3.2250073107550681E-002
  ==>> time-step=            1  SSS min:   33.950790119123468     
fld_read: var var165 kt =        2 ( 165.0062 days), Y/M/D = 2010/06/15, records b/a:   1320/  1321 (days  164.9375/ 165.0625)
 it_offset is :            0
fld_read: var var166 kt =        2 ( 165.0062 days), Y/M/D = 2010/06/15, records b/a:   1320/  1321 (days  164.9375/ 165.0625)
 it_offset is :            0
fld_read: var qs kt =        2 ( 165.0062 days), Y/M/D = 2010/06/15, records b/a:   1320/  1321 (days  164.9375/ 165.0625)
 it_offset is :            0
fld_read: var var169 kt =        2 ( 165.0062 days), Y/M/D = 2010/06/15, record:   0166 (days  165.0000 <->  166.0000)
fld_read: var var175 kt =        2 ( 165.0062 days), Y/M/D = 2010/06/15, record:   0166 (days  165.0000 <->  166.0000)
fld_read: var var167 kt =        2 ( 165.0062 days), Y/M/D = 2010/06/15, records b/a:   1320/  1321 (days  164.9375/ 165.0625)
 it_offset is :            0
fld_read: var var228 kt =        2 ( 165.0062 days), Y/M/D = 2010/06/15, record:   0166 (days  165.0000 <->  166.0000)
fld_read: var var144 kt =        2 ( 165.0062 days), Y/M/D = 2010/06/15, record:   0166 (days  165.0000 <->  166.0000)
fld_read: var CHL kt =        2 ( 165.0062 days), Y/M/D = 2010/06/15, records b/a:   0005/  0006 (days  135.5000/ 166.0000)
 it_offset is :            0
fld_read: var var165 kt =        3 ( 165.0104 days), Y/M/D = 2010/06/15, records b/a:   1320/  1321 (days  164.9375/ 165.0625)
 it_offset is :            0
fld_read: var var166 kt =        3 ( 165.0104 days), Y/M/D = 2010/06/15, records b/a:   1320/  1321 (days  164.9375/ 165.0625)
 it_offset is :            0
fld_read: var qs kt =        3 ( 165.0104 days), Y/M/D = 2010/06/15, records b/a:   1320/  1321 (days  164.9375/ 165.0625)
 it_offset is :            0
fld_read: var var169 kt =        3 ( 165.0104 days), Y/M/D = 2010/06/15, record:   0166 (days  165.0000 <->  166.0000)
fld_read: var var175 kt =        3 ( 165.0104 days), Y/M/D = 2010/06/15, record:   0166 (days  165.0000 <->  166.0000)
fld_read: var var167 kt =        3 ( 165.0104 days), Y/M/D = 2010/06/15, records b/a:   1320/  1321 (days  164.9375/ 165.0625)
 it_offset is :            0
fld_read: var var228 kt =        3 ( 165.0104 days), Y/M/D = 2010/06/15, record:   0166 (days  165.0000 <->  166.0000)
fld_read: var var144 kt =        3 ( 165.0104 days), Y/M/D = 2010/06/15, record:   0166 (days  165.0000 <->  166.0000)
fld_read: var CHL kt =        3 ( 165.0104 days), Y/M/D = 2010/06/15, records b/a:   0005/  0006 (days  135.5000/ 166.0000)
 it_offset is :            0
fld_read: var var165 kt =        4 ( 165.0146 days), Y/M/D = 2010/06/15, records b/a:   1320/  1321 (days  164.9375/ 165.0625)
 it_offset is :            0
fld_read: var var166 kt =        4 ( 165.0146 days), Y/M/D = 2010/06/15, records b/a:   1320/  1321 (days  164.9375/ 165.0625)
 it_offset is :            0
fld_read: var qs kt =        4 ( 165.0146 days), Y/M/D = 2010/06/15, records b/a:   1320/  1321 (days  164.9375/ 165.0625)
 it_offset is :            0
fld_read: var var169 kt =        4 ( 165.0146 days), Y/M/D = 2010/06/15, record:   0166 (days  165.0000 <->  166.0000)
fld_read: var var175 kt =        4 ( 165.0146 days), Y/M/D = 2010/06/15, record:   0166 (days  165.0000 <->  166.0000)
fld_read: var var167 kt =        4 ( 165.0146 days), Y/M/D = 2010/06/15, records b/a:   1320/  1321 (days  164.9375/ 165.0625)
 it_offset is :            0
fld_read: var var228 kt =        4 ( 165.0146 days), Y/M/D = 2010/06/15, record:   0166 (days  165.0000 <->  166.0000)
fld_read: var var144 kt =        4 ( 165.0146 days), Y/M/D = 2010/06/15, record:   0166 (days  165.0000 <->  166.0000)
fld_read: var CHL kt =        4 ( 165.0146 days), Y/M/D = 2010/06/15, records b/a:   0005/  0006 (days  135.5000/ 166.0000)
 it_offset is :            0
fld_read: var var165 kt =        5 ( 165.0188 days), Y/M/D = 2010/06/15, records b/a:   1320/  1321 (days  164.9375/ 165.0625)
 it_offset is :            0
fld_read: var var166 kt =        5 ( 165.0188 days), Y/M/D = 2010/06/15, records b/a:   1320/  1321 (days  164.9375/ 165.0625)
 it_offset is :            0
fld_read: var qs kt =        5 ( 165.0188 days), Y/M/D = 2010/06/15, records b/a:   1320/  1321 (days  164.9375/ 165.0625)
 it_offset is :            0
fld_read: var var169 kt =        5 ( 165.0188 days), Y/M/D = 2010/06/15, record:   0166 (days  165.0000 <->  166.0000)
fld_read: var var175 kt =        5 ( 165.0188 days), Y/M/D = 2010/06/15, record:   0166 (days  165.0000 <->  166.0000)
fld_read: var var167 kt =        5 ( 165.0188 days), Y/M/D = 2010/06/15, records b/a:   1320/  1321 (days  164.9375/ 165.0625)
 it_offset is :            0
fld_read: var var228 kt =        5 ( 165.0188 days), Y/M/D = 2010/06/15, record:   0166 (days  165.0000 <->  166.0000)
fld_read: var var144 kt =        5 ( 165.0188 days), Y/M/D = 2010/06/15, record:   0166 (days  165.0000 <->  166.0000)
fld_read: var CHL kt =        5 ( 165.0188 days), Y/M/D = 2010/06/15, records b/a:   0005/  0006 (days  135.5000/ 166.0000)
 it_offset is :            0
fld_read: var var165 kt =        6 ( 165.0229 days), Y/M/D = 2010/06/15, records b/a:   1320/  1321 (days  164.9375/ 165.0625)
 it_offset is :            0
fld_read: var var166 kt =        6 ( 165.0229 days), Y/M/D = 2010/06/15, records b/a:   1320/  1321 (days  164.9375/ 165.0625)
 it_offset is :            0
fld_read: var qs kt =        6 ( 165.0229 days), Y/M/D = 2010/06/15, records b/a:   1320/  1321 (days  164.9375/ 165.0625)
 it_offset is :            0
fld_read: var var169 kt =        6 ( 165.0229 days), Y/M/D = 2010/06/15, record:   0166 (days  165.0000 <->  166.0000)
fld_read: var var175 kt =        6 ( 165.0229 days), Y/M/D = 2010/06/15, record:   0166 (days  165.0000 <->  166.0000)
fld_read: var var167 kt =        6 ( 165.0229 days), Y/M/D = 2010/06/15, records b/a:   1320/  1321 (days  164.9375/ 165.0625)
 it_offset is :            0
fld_read: var var228 kt =        6 ( 165.0229 days), Y/M/D = 2010/06/15, record:   0166 (days  165.0000 <->  166.0000)
fld_read: var var144 kt =        6 ( 165.0229 days), Y/M/D = 2010/06/15, record:   0166 (days  165.0000 <->  166.0000)
fld_read: var CHL kt =        6 ( 165.0229 days), Y/M/D = 2010/06/15, records b/a:   0005/  0006 (days  135.5000/ 166.0000)
 it_offset is :            0
fld_read: var var165 kt =        7 ( 165.0271 days), Y/M/D = 2010/06/15, records b/a:   1320/  1321 (days  164.9375/ 165.0625)
 it_offset is :            0
fld_read: var var166 kt =        7 ( 165.0271 days), Y/M/D = 2010/06/15, records b/a:   1320/  1321 (days  164.9375/ 165.0625)
 it_offset is :            0
fld_read: var qs kt =        7 ( 165.0271 days), Y/M/D = 2010/06/15, records b/a:   1320/  1321 (days  164.9375/ 165.0625)
 it_offset is :            0
fld_read: var var169 kt =        7 ( 165.0271 days), Y/M/D = 2010/06/15, record:   0166 (days  165.0000 <->  166.0000)
fld_read: var var175 kt =        7 ( 165.0271 days), Y/M/D = 2010/06/15, record:   0166 (days  165.0000 <->  166.0000)
fld_read: var var167 kt =        7 ( 165.0271 days), Y/M/D = 2010/06/15, records b/a:   1320/  1321 (days  164.9375/ 165.0625)
 it_offset is :            0
fld_read: var var228 kt =        7 ( 165.0271 days), Y/M/D = 2010/06/15, record:   0166 (days  165.0000 <->  166.0000)
fld_read: var var144 kt =        7 ( 165.0271 days), Y/M/D = 2010/06/15, record:   0166 (days  165.0000 <->  166.0000)
fld_read: var CHL kt =        7 ( 165.0271 days), Y/M/D = 2010/06/15, records b/a:   0005/  0006 (days  135.5000/ 166.0000)
 it_offset is :            0
fld_read: var var165 kt =        8 ( 165.0312 days), Y/M/D = 2010/06/15, records b/a:   1320/  1321 (days  164.9375/ 165.0625)
 it_offset is :            0
fld_read: var var166 kt =        8 ( 165.0312 days), Y/M/D = 2010/06/15, records b/a:   1320/  1321 (days  164.9375/ 165.0625)
 it_offset is :            0
fld_read: var qs kt =        8 ( 165.0312 days), Y/M/D = 2010/06/15, records b/a:   1320/  1321 (days  164.9375/ 165.0625)
 it_offset is :            0
fld_read: var var169 kt =        8 ( 165.0312 days), Y/M/D = 2010/06/15, record:   0166 (days  165.0000 <->  166.0000)
fld_read: var var175 kt =        8 ( 165.0312 days), Y/M/D = 2010/06/15, record:   0166 (days  165.0000 <->  166.0000)
fld_read: var var167 kt =        8 ( 165.0312 days), Y/M/D = 2010/06/15, records b/a:   1320/  1321 (days  164.9375/ 165.0625)
 it_offset is :            0
fld_read: var var228 kt =        8 ( 165.0312 days), Y/M/D = 2010/06/15, record:   0166 (days  165.0000 <->  166.0000)
fld_read: var var144 kt =        8 ( 165.0312 days), Y/M/D = 2010/06/15, record:   0166 (days  165.0000 <->  166.0000)
fld_read: var CHL kt =        8 ( 165.0312 days), Y/M/D = 2010/06/15, records b/a:   0005/  0006 (days  135.5000/ 166.0000)
 it_offset is :            0
fld_read: var var165 kt =        9 ( 165.0354 days), Y/M/D = 2010/06/15, records b/a:   1320/  1321 (days  164.9375/ 165.0625)
 it_offset is :            0
fld_read: var var166 kt =        9 ( 165.0354 days), Y/M/D = 2010/06/15, records b/a:   1320/  1321 (days  164.9375/ 165.0625)
 it_offset is :            0
fld_read: var qs kt =        9 ( 165.0354 days), Y/M/D = 2010/06/15, records b/a:   1320/  1321 (days  164.9375/ 165.0625)
 it_offset is :            0
fld_read: var var169 kt =        9 ( 165.0354 days), Y/M/D = 2010/06/15, record:   0166 (days  165.0000 <->  166.0000)
fld_read: var var175 kt =        9 ( 165.0354 days), Y/M/D = 2010/06/15, record:   0166 (days  165.0000 <->  166.0000)
fld_read: var var167 kt =        9 ( 165.0354 days), Y/M/D = 2010/06/15, records b/a:   1320/  1321 (days  164.9375/ 165.0625)
 it_offset is :            0
fld_read: var var228 kt =        9 ( 165.0354 days), Y/M/D = 2010/06/15, record:   0166 (days  165.0000 <->  166.0000)
fld_read: var var144 kt =        9 ( 165.0354 days), Y/M/D = 2010/06/15, record:   0166 (days  165.0000 <->  166.0000)
fld_read: var CHL kt =        9 ( 165.0354 days), Y/M/D = 2010/06/15, records b/a:   0005/  0006 (days  135.5000/ 166.0000)
 it_offset is :            0
fld_read: var var165 kt =       10 ( 165.0396 days), Y/M/D = 2010/06/15, records b/a:   1320/  1321 (days  164.9375/ 165.0625)
 it_offset is :            0
fld_read: var var166 kt =       10 ( 165.0396 days), Y/M/D = 2010/06/15, records b/a:   1320/  1321 (days  164.9375/ 165.0625)
 it_offset is :            0
fld_read: var qs kt =       10 ( 165.0396 days), Y/M/D = 2010/06/15, records b/a:   1320/  1321 (days  164.9375/ 165.0625)
 it_offset is :            0
fld_read: var var169 kt =       10 ( 165.0396 days), Y/M/D = 2010/06/15, record:   0166 (days  165.0000 <->  166.0000)
fld_read: var var175 kt =       10 ( 165.0396 days), Y/M/D = 2010/06/15, record:   0166 (days  165.0000 <->  166.0000)
fld_read: var var167 kt =       10 ( 165.0396 days), Y/M/D = 2010/06/15, records b/a:   1320/  1321 (days  164.9375/ 165.0625)
 it_offset is :            0
fld_read: var var228 kt =       10 ( 165.0396 days), Y/M/D = 2010/06/15, record:   0166 (days  165.0000 <->  166.0000)
fld_read: var var144 kt =       10 ( 165.0396 days), Y/M/D = 2010/06/15, record:   0166 (days  165.0000 <->  166.0000)
fld_read: var CHL kt =       10 ( 165.0396 days), Y/M/D = 2010/06/15, records b/a:   0005/  0006 (days  135.5000/ 166.0000)
 it_offset is :            0
fld_read: var var165 kt =       11 ( 165.0437 days), Y/M/D = 2010/06/15, records b/a:   1320/  1321 (days  164.9375/ 165.0625)
 it_offset is :            0
fld_read: var var166 kt =       11 ( 165.0437 days), Y/M/D = 2010/06/15, records b/a:   1320/  1321 (days  164.9375/ 165.0625)
 it_offset is :            0
fld_read: var qs kt =       11 ( 165.0437 days), Y/M/D = 2010/06/15, records b/a:   1320/  1321 (days  164.9375/ 165.0625)
 it_offset is :            0
fld_read: var var169 kt =       11 ( 165.0437 days), Y/M/D = 2010/06/15, record:   0166 (days  165.0000 <->  166.0000)
fld_read: var var175 kt =       11 ( 165.0437 days), Y/M/D = 2010/06/15, record:   0166 (days  165.0000 <->  166.0000)
fld_read: var var167 kt =       11 ( 165.0437 days), Y/M/D = 2010/06/15, records b/a:   1320/  1321 (days  164.9375/ 165.0625)
 it_offset is :            0
fld_read: var var228 kt =       11 ( 165.0437 days), Y/M/D = 2010/06/15, record:   0166 (days  165.0000 <->  166.0000)
fld_read: var var144 kt =       11 ( 165.0437 days), Y/M/D = 2010/06/15, record:   0166 (days  165.0000 <->  166.0000)
fld_read: var CHL kt =       11 ( 165.0437 days), Y/M/D = 2010/06/15, records b/a:   0005/  0006 (days  135.5000/ 166.0000)
 it_offset is :            0
fld_read: var var165 kt =       12 ( 165.0479 days), Y/M/D = 2010/06/15, records b/a:   1320/  1321 (days  164.9375/ 165.0625)
 it_offset is :            0
fld_read: var var166 kt =       12 ( 165.0479 days), Y/M/D = 2010/06/15, records b/a:   1320/  1321 (days  164.9375/ 165.0625)
 it_offset is :            0
fld_read: var qs kt =       12 ( 165.0479 days), Y/M/D = 2010/06/15, records b/a:   1320/  1321 (days  164.9375/ 165.0625)
 it_offset is :            0
fld_read: var var169 kt =       12 ( 165.0479 days), Y/M/D = 2010/06/15, record:   0166 (days  165.0000 <->  166.0000)
fld_read: var var175 kt =       12 ( 165.0479 days), Y/M/D = 2010/06/15, record:   0166 (days  165.0000 <->  166.0000)
fld_read: var var167 kt =       12 ( 165.0479 days), Y/M/D = 2010/06/15, records b/a:   1320/  1321 (days  164.9375/ 165.0625)
 it_offset is :            0
fld_read: var var228 kt =       12 ( 165.0479 days), Y/M/D = 2010/06/15, record:   0166 (days  165.0000 <->  166.0000)
fld_read: var var144 kt =       12 ( 165.0479 days), Y/M/D = 2010/06/15, record:   0166 (days  165.0000 <->  166.0000)
fld_read: var CHL kt =       12 ( 165.0479 days), Y/M/D = 2010/06/15, records b/a:   0005/  0006 (days  135.5000/ 166.0000)
 it_offset is :            0
fld_read: var var165 kt =       13 ( 165.0521 days), Y/M/D = 2010/06/15, records b/a:   1320/  1321 (days  164.9375/ 165.0625)
 it_offset is :            0
fld_read: var var166 kt =       13 ( 165.0521 days), Y/M/D = 2010/06/15, records b/a:   1320/  1321 (days  164.9375/ 165.0625)
 it_offset is :            0
fld_read: var qs kt =       13 ( 165.0521 days), Y/M/D = 2010/06/15, records b/a:   1320/  1321 (days  164.9375/ 165.0625)
 it_offset is :            0
fld_read: var var169 kt =       13 ( 165.0521 days), Y/M/D = 2010/06/15, record:   0166 (days  165.0000 <->  166.0000)
fld_read: var var175 kt =       13 ( 165.0521 days), Y/M/D = 2010/06/15, record:   0166 (days  165.0000 <->  166.0000)
fld_read: var var167 kt =       13 ( 165.0521 days), Y/M/D = 2010/06/15, records b/a:   1320/  1321 (days  164.9375/ 165.0625)
 it_offset is :            0
fld_read: var var228 kt =       13 ( 165.0521 days), Y/M/D = 2010/06/15, record:   0166 (days  165.0000 <->  166.0000)
fld_read: var var144 kt =       13 ( 165.0521 days), Y/M/D = 2010/06/15, record:   0166 (days  165.0000 <->  166.0000)
fld_read: var CHL kt =       13 ( 165.0521 days), Y/M/D = 2010/06/15, records b/a:   0005/  0006 (days  135.5000/ 166.0000)
 it_offset is :            0
fld_read: var var165 kt =       14 ( 165.0563 days), Y/M/D = 2010/06/15, records b/a:   1320/  1321 (days  164.9375/ 165.0625)
 it_offset is :            0
fld_read: var var166 kt =       14 ( 165.0563 days), Y/M/D = 2010/06/15, records b/a:   1320/  1321 (days  164.9375/ 165.0625)
 it_offset is :            0
fld_read: var qs kt =       14 ( 165.0563 days), Y/M/D = 2010/06/15, records b/a:   1320/  1321 (days  164.9375/ 165.0625)
 it_offset is :            0
fld_read: var var169 kt =       14 ( 165.0563 days), Y/M/D = 2010/06/15, record:   0166 (days  165.0000 <->  166.0000)
fld_read: var var175 kt =       14 ( 165.0563 days), Y/M/D = 2010/06/15, record:   0166 (days  165.0000 <->  166.0000)
fld_read: var var167 kt =       14 ( 165.0563 days), Y/M/D = 2010/06/15, records b/a:   1320/  1321 (days  164.9375/ 165.0625)
 it_offset is :            0
fld_read: var var228 kt =       14 ( 165.0563 days), Y/M/D = 2010/06/15, record:   0166 (days  165.0000 <->  166.0000)
fld_read: var var144 kt =       14 ( 165.0563 days), Y/M/D = 2010/06/15, record:   0166 (days  165.0000 <->  166.0000)
fld_read: var CHL kt =       14 ( 165.0563 days), Y/M/D = 2010/06/15, records b/a:   0005/  0006 (days  135.5000/ 166.0000)
 it_offset is :            0
fld_read: var var165 kt =       15 ( 165.0604 days), Y/M/D = 2010/06/15, records b/a:   1320/  1321 (days  164.9375/ 165.0625)
 it_offset is :            0
fld_read: var var166 kt =       15 ( 165.0604 days), Y/M/D = 2010/06/15, records b/a:   1320/  1321 (days  164.9375/ 165.0625)
 it_offset is :            0
fld_read: var qs kt =       15 ( 165.0604 days), Y/M/D = 2010/06/15, records b/a:   1320/  1321 (days  164.9375/ 165.0625)
 it_offset is :            0
fld_read: var var169 kt =       15 ( 165.0604 days), Y/M/D = 2010/06/15, record:   0166 (days  165.0000 <->  166.0000)
fld_read: var var175 kt =       15 ( 165.0604 days), Y/M/D = 2010/06/15, record:   0166 (days  165.0000 <->  166.0000)
fld_read: var var167 kt =       15 ( 165.0604 days), Y/M/D = 2010/06/15, records b/a:   1320/  1321 (days  164.9375/ 165.0625)
 it_offset is :            0
fld_read: var var228 kt =       15 ( 165.0604 days), Y/M/D = 2010/06/15, record:   0166 (days  165.0000 <->  166.0000)
fld_read: var var144 kt =       15 ( 165.0604 days), Y/M/D = 2010/06/15, record:   0166 (days  165.0000 <->  166.0000)
fld_read: var CHL kt =       15 ( 165.0604 days), Y/M/D = 2010/06/15, records b/a:   0005/  0006 (days  135.5000/ 166.0000)
 it_offset is :            0
           read var165 (rec:   1322) in ./stSAZ_eraINT_165_y2010.nc ok
           read var166 (rec:   1322) in ./stSAZ_eraINT_166_y2010.nc ok
           read qs (rec:   1322) in ./stSAZ_eraINT_qs_y2009.nc ok
           read var167 (rec:   1322) in ./stSAZ_eraINT_167_y2010.nc ok
fld_read: var var165 kt =       16 ( 165.0646 days), Y/M/D = 2010/06/15, records b/a:   1321/  1322 (days  165.0625/ 165.1875)
 it_offset is :            0
fld_read: var var166 kt =       16 ( 165.0646 days), Y/M/D = 2010/06/15, records b/a:   1321/  1322 (days  165.0625/ 165.1875)
 it_offset is :            0
fld_read: var qs kt =       16 ( 165.0646 days), Y/M/D = 2010/06/15, records b/a:   1321/  1322 (days  165.0625/ 165.1875)
 it_offset is :            0
fld_read: var var169 kt =       16 ( 165.0646 days), Y/M/D = 2010/06/15, record:   0166 (days  165.0000 <->  166.0000)
fld_read: var var175 kt =       16 ( 165.0646 days), Y/M/D = 2010/06/15, record:   0166 (days  165.0000 <->  166.0000)
fld_read: var var167 kt =       16 ( 165.0646 days), Y/M/D = 2010/06/15, records b/a:   1321/  1322 (days  165.0625/ 165.1875)
 it_offset is :            0
fld_read: var var228 kt =       16 ( 165.0646 days), Y/M/D = 2010/06/15, record:   0166 (days  165.0000 <->  166.0000)
fld_read: var var144 kt =       16 ( 165.0646 days), Y/M/D = 2010/06/15, record:   0166 (days  165.0000 <->  166.0000)
fld_read: var CHL kt =       16 ( 165.0646 days), Y/M/D = 2010/06/15, records b/a:   0005/  0006 (days  135.5000/ 166.0000)
 it_offset is :            0
fld_read: var var165 kt =       17 ( 165.0687 days), Y/M/D = 2010/06/15, records b/a:   1321/  1322 (days  165.0625/ 165.1875)
 it_offset is :            0
fld_read: var var166 kt =       17 ( 165.0687 days), Y/M/D = 2010/06/15, records b/a:   1321/  1322 (days  165.0625/ 165.1875)
 it_offset is :            0
fld_read: var qs kt =       17 ( 165.0687 days), Y/M/D = 2010/06/15, records b/a:   1321/  1322 (days  165.0625/ 165.1875)
 it_offset is :            0
fld_read: var var169 kt =       17 ( 165.0687 days), Y/M/D = 2010/06/15, record:   0166 (days  165.0000 <->  166.0000)
fld_read: var var175 kt =       17 ( 165.0687 days), Y/M/D = 2010/06/15, record:   0166 (days  165.0000 <->  166.0000)
fld_read: var var167 kt =       17 ( 165.0687 days), Y/M/D = 2010/06/15, records b/a:   1321/  1322 (days  165.0625/ 165.1875)
 it_offset is :            0
fld_read: var var228 kt =       17 ( 165.0687 days), Y/M/D = 2010/06/15, record:   0166 (days  165.0000 <->  166.0000)
fld_read: var var144 kt =       17 ( 165.0687 days), Y/M/D = 2010/06/15, record:   0166 (days  165.0000 <->  166.0000)
fld_read: var CHL kt =       17 ( 165.0687 days), Y/M/D = 2010/06/15, records b/a:   0005/  0006 (days  135.5000/ 166.0000)
 it_offset is :            0
fld_read: var var165 kt =       18 ( 165.0729 days), Y/M/D = 2010/06/15, records b/a:   1321/  1322 (days  165.0625/ 165.1875)
 it_offset is :            0
fld_read: var var166 kt =       18 ( 165.0729 days), Y/M/D = 2010/06/15, records b/a:   1321/  1322 (days  165.0625/ 165.1875)
 it_offset is :            0
fld_read: var qs kt =       18 ( 165.0729 days), Y/M/D = 2010/06/15, records b/a:   1321/  1322 (days  165.0625/ 165.1875)
 it_offset is :            0
fld_read: var var169 kt =       18 ( 165.0729 days), Y/M/D = 2010/06/15, record:   0166 (days  165.0000 <->  166.0000)
fld_read: var var175 kt =       18 ( 165.0729 days), Y/M/D = 2010/06/15, record:   0166 (days  165.0000 <->  166.0000)
fld_read: var var167 kt =       18 ( 165.0729 days), Y/M/D = 2010/06/15, records b/a:   1321/  1322 (days  165.0625/ 165.1875)
 it_offset is :            0
fld_read: var var228 kt =       18 ( 165.0729 days), Y/M/D = 2010/06/15, record:   0166 (days  165.0000 <->  166.0000)
fld_read: var var144 kt =       18 ( 165.0729 days), Y/M/D = 2010/06/15, record:   0166 (days  165.0000 <->  166.0000)
fld_read: var CHL kt =       18 ( 165.0729 days), Y/M/D = 2010/06/15, records b/a:   0005/  0006 (days  135.5000/ 166.0000)
 it_offset is :            0
fld_read: var var165 kt =       19 ( 165.0771 days), Y/M/D = 2010/06/15, records b/a:   1321/  1322 (days  165.0625/ 165.1875)
 it_offset is :            0
fld_read: var var166 kt =       19 ( 165.0771 days), Y/M/D = 2010/06/15, records b/a:   1321/  1322 (days  165.0625/ 165.1875)
 it_offset is :            0
fld_read: var qs kt =       19 ( 165.0771 days), Y/M/D = 2010/06/15, records b/a:   1321/  1322 (days  165.0625/ 165.1875)
 it_offset is :            0
fld_read: var var169 kt =       19 ( 165.0771 days), Y/M/D = 2010/06/15, record:   0166 (days  165.0000 <->  166.0000)
fld_read: var var175 kt =       19 ( 165.0771 days), Y/M/D = 2010/06/15, record:   0166 (days  165.0000 <->  166.0000)
fld_read: var var167 kt =       19 ( 165.0771 days), Y/M/D = 2010/06/15, records b/a:   1321/  1322 (days  165.0625/ 165.1875)
 it_offset is :            0
fld_read: var var228 kt =       19 ( 165.0771 days), Y/M/D = 2010/06/15, record:   0166 (days  165.0000 <->  166.0000)
fld_read: var var144 kt =       19 ( 165.0771 days), Y/M/D = 2010/06/15, record:   0166 (days  165.0000 <->  166.0000)
fld_read: var CHL kt =       19 ( 165.0771 days), Y/M/D = 2010/06/15, records b/a:   0005/  0006 (days  135.5000/ 166.0000)
 it_offset is :            0
fld_read: var var165 kt =       20 ( 165.0813 days), Y/M/D = 2010/06/15, records b/a:   1321/  1322 (days  165.0625/ 165.1875)
 it_offset is :            0
fld_read: var var166 kt =       20 ( 165.0813 days), Y/M/D = 2010/06/15, records b/a:   1321/  1322 (days  165.0625/ 165.1875)
 it_offset is :            0
fld_read: var qs kt =       20 ( 165.0813 days), Y/M/D = 2010/06/15, records b/a:   1321/  1322 (days  165.0625/ 165.1875)
 it_offset is :            0
fld_read: var var169 kt =       20 ( 165.0813 days), Y/M/D = 2010/06/15, record:   0166 (days  165.0000 <->  166.0000)
fld_read: var var175 kt =       20 ( 165.0813 days), Y/M/D = 2010/06/15, record:   0166 (days  165.0000 <->  166.0000)
fld_read: var var167 kt =       20 ( 165.0813 days), Y/M/D = 2010/06/15, records b/a:   1321/  1322 (days  165.0625/ 165.1875)
 it_offset is :            0
fld_read: var var228 kt =       20 ( 165.0813 days), Y/M/D = 2010/06/15, record:   0166 (days  165.0000 <->  166.0000)
fld_read: var var144 kt =       20 ( 165.0813 days), Y/M/D = 2010/06/15, record:   0166 (days  165.0000 <->  166.0000)
fld_read: var CHL kt =       20 ( 165.0813 days), Y/M/D = 2010/06/15, records b/a:   0005/  0006 (days  135.5000/ 166.0000)
 it_offset is :            0
fld_read: var var165 kt =       21 ( 165.0854 days), Y/M/D = 2010/06/15, records b/a:   1321/  1322 (days  165.0625/ 165.1875)
 it_offset is :            0
fld_read: var var166 kt =       21 ( 165.0854 days), Y/M/D = 2010/06/15, records b/a:   1321/  1322 (days  165.0625/ 165.1875)
 it_offset is :            0
fld_read: var qs kt =       21 ( 165.0854 days), Y/M/D = 2010/06/15, records b/a:   1321/  1322 (days  165.0625/ 165.1875)
 it_offset is :            0
fld_read: var var169 kt =       21 ( 165.0854 days), Y/M/D = 2010/06/15, record:   0166 (days  165.0000 <->  166.0000)
fld_read: var var175 kt =       21 ( 165.0854 days), Y/M/D = 2010/06/15, record:   0166 (days  165.0000 <->  166.0000)
fld_read: var var167 kt =       21 ( 165.0854 days), Y/M/D = 2010/06/15, records b/a:   1321/  1322 (days  165.0625/ 165.1875)
 it_offset is :            0
fld_read: var var228 kt =       21 ( 165.0854 days), Y/M/D = 2010/06/15, record:   0166 (days  165.0000 <->  166.0000)
fld_read: var var144 kt =       21 ( 165.0854 days), Y/M/D = 2010/06/15, record:   0166 (days  165.0000 <->  166.0000)
[...]
           read var166 (rec:   2748) in ./stSAZ_eraINT_166_y2010.nc ok
           read qs (rec:   2748) in ./stSAZ_eraINT_qs_y2009.nc ok
           read var167 (rec:   2748) in ./stSAZ_eraINT_167_y2010.nc ok
           read var165 (rec:   2749) in ./stSAZ_eraINT_165_y2010.nc ok
           read var166 (rec:   2749) in ./stSAZ_eraINT_166_y2010.nc ok
           read qs (rec:   2749) in ./stSAZ_eraINT_qs_y2009.nc ok
           read var167 (rec:   2749) in ./stSAZ_eraINT_167_y2010.nc ok
           read var165 (rec:   2750) in ./stSAZ_eraINT_165_y2010.nc ok
           read var166 (rec:   2750) in ./stSAZ_eraINT_166_y2010.nc ok
           read qs (rec:   2750) in ./stSAZ_eraINT_qs_y2009.nc ok
           read var167 (rec:   2750) in ./stSAZ_eraINT_167_y2010.nc ok
           read var165 (rec:   2751) in ./stSAZ_eraINT_165_y2010.nc ok
           read var166 (rec:   2751) in ./stSAZ_eraINT_166_y2010.nc ok
           read qs (rec:   2751) in ./stSAZ_eraINT_qs_y2009.nc ok
           read var167 (rec:   2751) in ./stSAZ_eraINT_167_y2010.nc ok
           read var165 (rec:   2752) in ./stSAZ_eraINT_165_y2010.nc ok
           read var166 (rec:   2752) in ./stSAZ_eraINT_166_y2010.nc ok
           read qs (rec:   2752) in ./stSAZ_eraINT_qs_y2009.nc ok
           read var167 (rec:   2752) in ./stSAZ_eraINT_167_y2010.nc ok
           read var165 (rec:   2753) in ./stSAZ_eraINT_165_y2010.nc ok
           read var166 (rec:   2753) in ./stSAZ_eraINT_166_y2010.nc ok
           read qs (rec:   2753) in ./stSAZ_eraINT_qs_y2009.nc ok
           read var167 (rec:   2753) in ./stSAZ_eraINT_167_y2010.nc ok
======>> time-step =  130561      New day, DATE Y/M/D = 2011/12/11      nday_year = 345
         nsec_year = 29721780   nsec_month =  864180   nsec_day =   180
   nsec_week =   604980
           read var169 (rec:    345) in ./stSAZ_eraINT_169_y2010.nc ok
           read var175 (rec:    345) in ./stSAZ_eraINT_175_y2010.nc ok
           read var228 (rec:    345) in ./stSAZ_eraINT_228_y2010.nc ok
           read var144 (rec:    345) in ./stSAZ_eraINT_144_y2010.nc ok
  ==>> time-step=       130561  abs(U) max:    7.4563010417569880E-002
  ==>> time-step=       130561  SSS min:   33.915674357513595     
           read var165 (rec:   2754) in ./stSAZ_eraINT_165_y2010.nc ok
           read var166 (rec:   2754) in ./stSAZ_eraINT_166_y2010.nc ok
           read qs (rec:   2754) in ./stSAZ_eraINT_qs_y2009.nc ok
           read var167 (rec:   2754) in ./stSAZ_eraINT_167_y2010.nc ok
           read var165 (rec:   2755) in ./stSAZ_eraINT_165_y2010.nc ok
           read var166 (rec:   2755) in ./stSAZ_eraINT_166_y2010.nc ok
           read qs (rec:   2755) in ./stSAZ_eraINT_qs_y2009.nc ok
           read var167 (rec:   2755) in ./stSAZ_eraINT_167_y2010.nc ok
           read var165 (rec:   2756) in ./stSAZ_eraINT_165_y2010.nc ok
           read var166 (rec:   2756) in ./stSAZ_eraINT_166_y2010.nc ok
           read qs (rec:   2756) in ./stSAZ_eraINT_qs_y2009.nc ok
           read var167 (rec:   2756) in ./stSAZ_eraINT_167_y2010.nc ok
           read var165 (rec:   2757) in ./stSAZ_eraINT_165_y2010.nc ok
           read var166 (rec:   2757) in ./stSAZ_eraINT_166_y2010.nc ok
           read qs (rec:   2757) in ./stSAZ_eraINT_qs_y2009.nc ok
           read var167 (rec:   2757) in ./stSAZ_eraINT_167_y2010.nc ok
           read var165 (rec:   2758) in ./stSAZ_eraINT_165_y2010.nc ok
           read var166 (rec:   2758) in ./stSAZ_eraINT_166_y2010.nc ok
           read qs (rec:   2758) in ./stSAZ_eraINT_qs_y2009.nc ok
           read var167 (rec:   2758) in ./stSAZ_eraINT_167_y2010.nc ok
           read var165 (rec:   2759) in ./stSAZ_eraINT_165_y2010.nc ok
           read var166 (rec:   2759) in ./stSAZ_eraINT_166_y2010.nc ok
           read qs (rec:   2759) in ./stSAZ_eraINT_qs_y2009.nc ok
           read var167 (rec:   2759) in ./stSAZ_eraINT_167_y2010.nc ok
           read var165 (rec:   2760) in ./stSAZ_eraINT_165_y2010.nc ok
           read var166 (rec:   2760) in ./stSAZ_eraINT_166_y2010.nc ok
           read qs (rec:   2760) in ./stSAZ_eraINT_qs_y2009.nc ok
           read var167 (rec:   2760) in ./stSAZ_eraINT_167_y2010.nc ok
           read var165 (rec:   2761) in ./stSAZ_eraINT_165_y2010.nc ok
           read var166 (rec:   2761) in ./stSAZ_eraINT_166_y2010.nc ok
           read qs (rec:   2761) in ./stSAZ_eraINT_qs_y2009.nc ok
           read var167 (rec:   2761) in ./stSAZ_eraINT_167_y2010.nc ok
======>> time-step =  130801      New day, DATE Y/M/D = 2011/12/12      nday_year = 346
         nsec_year = 29808180   nsec_month =  950580   nsec_day =   180
   nsec_week =    86580
           read var169 (rec:    346) in ./stSAZ_eraINT_169_y2010.nc ok
           read var175 (rec:    346) in ./stSAZ_eraINT_175_y2010.nc ok
           read var228 (rec:    346) in ./stSAZ_eraINT_228_y2010.nc ok
           read var144 (rec:    346) in ./stSAZ_eraINT_144_y2010.nc ok
  ==>> time-step=       130801  abs(U) max:    7.2316118628121970E-002
  ==>> time-step=       130801  SSS min:   33.912959300824888     
           read var165 (rec:   2762) in ./stSAZ_eraINT_165_y2010.nc ok
           read var166 (rec:   2762) in ./stSAZ_eraINT_166_y2010.nc ok
           read qs (rec:   2762) in ./stSAZ_eraINT_qs_y2009.nc ok
           read var167 (rec:   2762) in ./stSAZ_eraINT_167_y2010.nc ok
           read var165 (rec:   2763) in ./stSAZ_eraINT_165_y2010.nc ok
           read var166 (rec:   2763) in ./stSAZ_eraINT_166_y2010.nc ok
           read qs (rec:   2763) in ./stSAZ_eraINT_qs_y2009.nc ok
           read var167 (rec:   2763) in ./stSAZ_eraINT_167_y2010.nc ok
           read var165 (rec:   2764) in ./stSAZ_eraINT_165_y2010.nc ok
           read var166 (rec:   2764) in ./stSAZ_eraINT_166_y2010.nc ok
           read qs (rec:   2764) in ./stSAZ_eraINT_qs_y2009.nc ok
           read var167 (rec:   2764) in ./stSAZ_eraINT_167_y2010.nc ok
           read var165 (rec:   2765) in ./stSAZ_eraINT_165_y2010.nc ok
           read var166 (rec:   2765) in ./stSAZ_eraINT_166_y2010.nc ok
           read qs (rec:   2765) in ./stSAZ_eraINT_qs_y2009.nc ok
           read var167 (rec:   2765) in ./stSAZ_eraINT_167_y2010.nc ok
           read var165 (rec:   2766) in ./stSAZ_eraINT_165_y2010.nc ok
           read var166 (rec:   2766) in ./stSAZ_eraINT_166_y2010.nc ok
           read qs (rec:   2766) in ./stSAZ_eraINT_qs_y2009.nc ok
           read var167 (rec:   2766) in ./stSAZ_eraINT_167_y2010.nc ok
           read var165 (rec:   2767) in ./stSAZ_eraINT_165_y2010.nc ok
           read var166 (rec:   2767) in ./stSAZ_eraINT_166_y2010.nc ok
           read qs (rec:   2767) in ./stSAZ_eraINT_qs_y2009.nc ok
           read var167 (rec:   2767) in ./stSAZ_eraINT_167_y2010.nc ok
           read var165 (rec:   2768) in ./stSAZ_eraINT_165_y2010.nc ok
           read var166 (rec:   2768) in ./stSAZ_eraINT_166_y2010.nc ok
           read qs (rec:   2768) in ./stSAZ_eraINT_qs_y2009.nc ok
           read var167 (rec:   2768) in ./stSAZ_eraINT_167_y2010.nc ok
           read var165 (rec:   2769) in ./stSAZ_eraINT_165_y2010.nc ok
           read var166 (rec:   2769) in ./stSAZ_eraINT_166_y2010.nc ok
           read qs (rec:   2769) in ./stSAZ_eraINT_qs_y2009.nc ok
           read var167 (rec:   2769) in ./stSAZ_eraINT_167_y2010.nc ok
======>> time-step =  131041      New day, DATE Y/M/D = 2011/12/13      nday_year = 347
         nsec_year = 29894580   nsec_month = 1036980   nsec_day =   180
   nsec_week =   172980
           read var169 (rec:    347) in ./stSAZ_eraINT_169_y2010.nc ok
           read var175 (rec:    347) in ./stSAZ_eraINT_175_y2010.nc ok
           read var228 (rec:    347) in ./stSAZ_eraINT_228_y2010.nc ok
           read var144 (rec:    347) in ./stSAZ_eraINT_144_y2010.nc ok
  ==>> time-step=       131041  abs(U) max:    7.7730970511597663E-002
  ==>> time-step=       131041  SSS min:   33.901626431477197     
           read var165 (rec:   2770) in ./stSAZ_eraINT_165_y2010.nc ok
           read var166 (rec:   2770) in ./stSAZ_eraINT_166_y2010.nc ok
           read qs (rec:   2770) in ./stSAZ_eraINT_qs_y2009.nc ok
           read var167 (rec:   2770) in ./stSAZ_eraINT_167_y2010.nc ok
           read var165 (rec:   2771) in ./stSAZ_eraINT_165_y2010.nc ok
           read var166 (rec:   2771) in ./stSAZ_eraINT_166_y2010.nc ok
           read qs (rec:   2771) in ./stSAZ_eraINT_qs_y2009.nc ok
           read var167 (rec:   2771) in ./stSAZ_eraINT_167_y2010.nc ok
           read var165 (rec:   2772) in ./stSAZ_eraINT_165_y2010.nc ok
           read var166 (rec:   2772) in ./stSAZ_eraINT_166_y2010.nc ok
           read qs (rec:   2772) in ./stSAZ_eraINT_qs_y2009.nc ok
           read var167 (rec:   2772) in ./stSAZ_eraINT_167_y2010.nc ok
           read var165 (rec:   2773) in ./stSAZ_eraINT_165_y2010.nc ok
           read var166 (rec:   2773) in ./stSAZ_eraINT_166_y2010.nc ok
           read qs (rec:   2773) in ./stSAZ_eraINT_qs_y2009.nc ok
           read var167 (rec:   2773) in ./stSAZ_eraINT_167_y2010.nc ok
           read var165 (rec:   2774) in ./stSAZ_eraINT_165_y2010.nc ok
           read var166 (rec:   2774) in ./stSAZ_eraINT_166_y2010.nc ok
           read qs (rec:   2774) in ./stSAZ_eraINT_qs_y2009.nc ok
           read var167 (rec:   2774) in ./stSAZ_eraINT_167_y2010.nc ok
           read var165 (rec:   2775) in ./stSAZ_eraINT_165_y2010.nc ok
           read var166 (rec:   2775) in ./stSAZ_eraINT_166_y2010.nc ok
           read qs (rec:   2775) in ./stSAZ_eraINT_qs_y2009.nc ok
           read var167 (rec:   2775) in ./stSAZ_eraINT_167_y2010.nc ok
           read var165 (rec:   2776) in ./stSAZ_eraINT_165_y2010.nc ok
           read var166 (rec:   2776) in ./stSAZ_eraINT_166_y2010.nc ok
           read qs (rec:   2776) in ./stSAZ_eraINT_qs_y2009.nc ok
           read var167 (rec:   2776) in ./stSAZ_eraINT_167_y2010.nc ok
           read var165 (rec:   2777) in ./stSAZ_eraINT_165_y2010.nc ok
           read var166 (rec:   2777) in ./stSAZ_eraINT_166_y2010.nc ok
           read qs (rec:   2777) in ./stSAZ_eraINT_qs_y2009.nc ok
           read var167 (rec:   2777) in ./stSAZ_eraINT_167_y2010.nc ok
======>> time-step =  131281      New day, DATE Y/M/D = 2011/12/14      nday_year = 348
         nsec_year = 29980980   nsec_month = 1123380   nsec_day =   180
   nsec_week =   259380
           read var169 (rec:    348) in ./stSAZ_eraINT_169_y2010.nc ok
           read var175 (rec:    348) in ./stSAZ_eraINT_175_y2010.nc ok
           read var228 (rec:    348) in ./stSAZ_eraINT_228_y2010.nc ok
           read var144 (rec:    348) in ./stSAZ_eraINT_144_y2010.nc ok
  ==>> time-step=       131281  abs(U) max:    3.9490501339648848E-002
  ==>> time-step=       131281  SSS min:   33.906634572740899     
           read var165 (rec:   2778) in ./stSAZ_eraINT_165_y2010.nc ok
           read var166 (rec:   2778) in ./stSAZ_eraINT_166_y2010.nc ok
           read qs (rec:   2778) in ./stSAZ_eraINT_qs_y2009.nc ok
           read var167 (rec:   2778) in ./stSAZ_eraINT_167_y2010.nc ok
           read var165 (rec:   2779) in ./stSAZ_eraINT_165_y2010.nc ok
           read var166 (rec:   2779) in ./stSAZ_eraINT_166_y2010.nc ok
           read qs (rec:   2779) in ./stSAZ_eraINT_qs_y2009.nc ok
           read var167 (rec:   2779) in ./stSAZ_eraINT_167_y2010.nc ok
           read var165 (rec:   2780) in ./stSAZ_eraINT_165_y2010.nc ok
           read var166 (rec:   2780) in ./stSAZ_eraINT_166_y2010.nc ok
           read qs (rec:   2780) in ./stSAZ_eraINT_qs_y2009.nc ok
           read var167 (rec:   2780) in ./stSAZ_eraINT_167_y2010.nc ok
           read var165 (rec:   2781) in ./stSAZ_eraINT_165_y2010.nc ok
           read var166 (rec:   2781) in ./stSAZ_eraINT_166_y2010.nc ok
           read qs (rec:   2781) in ./stSAZ_eraINT_qs_y2009.nc ok
           read var167 (rec:   2781) in ./stSAZ_eraINT_167_y2010.nc ok

              open ocean restart NetCDF file: ./SAZ_00131400_restart                              
              kt = nitrst - 1 =       131399
                     iom_nf90_open ~~~ create new file: ./SAZ_00131400_restart.nc in WRITE mode
                    ---> ./SAZ_00131400_restart.nc OK
           iom_nf90_rp0123d, file: ./SAZ_00131400_restart.nc, var: kt define dimension variables done
           iom_nf90_rp0123d, file: ./SAZ_00131400_restart.nc, var: kt defined ok
           iom_nf90_rp0123d, file: ./SAZ_00131400_restart.nc, var: ndastp defined ok
           iom_nf90_rp0123d, file: ./SAZ_00131400_restart.nc, var: adatrj defined ok

 sbc : ocean surface forcing fields written in ocean restart file at it=       131399  date=     20111214
 ~~~~
           iom_nf90_rp0123d, file: ./SAZ_00131400_restart.nc, var: utau_b defined ok
           iom_nf90_rp0123d, file: ./SAZ_00131400_restart.nc, var: vtau_b defined ok
           iom_nf90_rp0123d, file: ./SAZ_00131400_restart.nc, var: qns_b defined ok
           iom_nf90_rp0123d, file: ./SAZ_00131400_restart.nc, var: emp_b defined ok
           iom_nf90_rp0123d, file: ./SAZ_00131400_restart.nc, var: sfx_b defined ok
 ---- gls-rst ----
           iom_nf90_rp0123d, file: ./SAZ_00131400_restart.nc, var: en defined ok
           iom_nf90_rp0123d, file: ./SAZ_00131400_restart.nc, var: avt defined ok
           iom_nf90_rp0123d, file: ./SAZ_00131400_restart.nc, var: avm defined ok
           iom_nf90_rp0123d, file: ./SAZ_00131400_restart.nc, var: avmu defined ok
           iom_nf90_rp0123d, file: ./SAZ_00131400_restart.nc, var: avmv defined ok
           iom_nf90_rp0123d, file: ./SAZ_00131400_restart.nc, var: mxln defined ok

 sbc : ocean surface tracer content forcing fields written in ocean restart file at it=       131399  date=     20111214
 ~~~~
           iom_nf90_rp0123d, file: ./SAZ_00131400_restart.nc, var: sbc_hc_b defined ok
           iom_nf90_rp0123d, file: ./SAZ_00131400_restart.nc, var: sbc_sc_b defined ok

 qsr tracer content forcing field written in ocean restart file at it=       131399  date=     20111214
 ~~~~
           iom_nf90_rp0123d, file: ./SAZ_00131400_restart.nc, var: qsr_hc_b defined ok
           iom_nf90_rp0123d, file: ./SAZ_00131400_restart.nc, var: fraqsr_1lev defined ok
           iom_nf90_rp0123d, file: ./SAZ_00131400_restart.nc, var: rdt defined ok
           iom_nf90_rp0123d, file: ./SAZ_00131400_restart.nc, var: rdttra1 defined ok
           iom_nf90_rp0123d, file: ./SAZ_00131400_restart.nc, var: ub defined ok
           iom_nf90_rp0123d, file: ./SAZ_00131400_restart.nc, var: vb defined ok
           iom_nf90_rp0123d, file: ./SAZ_00131400_restart.nc, var: tb defined ok
           iom_nf90_rp0123d, file: ./SAZ_00131400_restart.nc, var: sb defined ok
           iom_nf90_rp0123d, file: ./SAZ_00131400_restart.nc, var: rotb defined ok
           iom_nf90_rp0123d, file: ./SAZ_00131400_restart.nc, var: hdivb defined ok
           iom_nf90_rp0123d, file: ./SAZ_00131400_restart.nc, var: sshb defined ok
           iom_nf90_rp0123d, file: ./SAZ_00131400_restart.nc, var: un defined ok
           iom_nf90_rp0123d, file: ./SAZ_00131400_restart.nc, var: vn defined ok
           iom_nf90_rp0123d, file: ./SAZ_00131400_restart.nc, var: tn defined ok
           iom_nf90_rp0123d, file: ./SAZ_00131400_restart.nc, var: sn defined ok
           iom_nf90_rp0123d, file: ./SAZ_00131400_restart.nc, var: rotn defined ok
           iom_nf90_rp0123d, file: ./SAZ_00131400_restart.nc, var: hdivn defined ok
           iom_nf90_rp0123d, file: ./SAZ_00131400_restart.nc, var: sshn defined ok
           iom_nf90_rp0123d, file: ./SAZ_00131400_restart.nc, var: rhop defined ok

 rst_write : write oce restart file  kt =      131400
 ~~~~~~~
           iom_nf90_rp0123d, file: ./SAZ_00131400_restart.nc, var: kt written ok
           iom_nf90_rp0123d, file: ./SAZ_00131400_restart.nc, var: ndastp written ok
           iom_nf90_rp0123d, file: ./SAZ_00131400_restart.nc, var: adatrj written ok
                     iom_close ~~~ close file: ./stSAZ_eraINT_165_y2010.nc ok
                     iom_close ~~~ close file: ./stSAZ_eraINT_166_y2010.nc ok
                     iom_close ~~~ close file: ./stSAZ_eraINT_qs_y2009.nc ok
                     iom_close ~~~ close file: ./stSAZ_eraINT_169_y2010.nc ok
                     iom_close ~~~ close file: ./stSAZ_eraINT_175_y2010.nc ok
                     iom_close ~~~ close file: ./stSAZ_eraINT_167_y2010.nc ok
                     iom_close ~~~ close file: ./stSAZ_eraINT_228_y2010.nc ok
                     iom_close ~~~ close file: ./stSAZ_eraINT_144_y2010.nc ok

 sbc : ocean surface forcing fields written in ocean restart file at it=       131400  date=     20111214
 ~~~~
           iom_nf90_rp0123d, file: ./SAZ_00131400_restart.nc, var: utau_b write dimension variables done
           iom_nf90_rp0123d, file: ./SAZ_00131400_restart.nc, var: utau_b written ok
           iom_nf90_rp0123d, file: ./SAZ_00131400_restart.nc, var: vtau_b written ok
           iom_nf90_rp0123d, file: ./SAZ_00131400_restart.nc, var: qns_b written ok
           iom_nf90_rp0123d, file: ./SAZ_00131400_restart.nc, var: emp_b written ok
           iom_nf90_rp0123d, file: ./SAZ_00131400_restart.nc, var: sfx_b written ok
 ---- gls-rst ----
           iom_nf90_rp0123d, file: ./SAZ_00131400_restart.nc, var: en written ok
           iom_nf90_rp0123d, file: ./SAZ_00131400_restart.nc, var: avt written ok
           iom_nf90_rp0123d, file: ./SAZ_00131400_restart.nc, var: avm written ok
           iom_nf90_rp0123d, file: ./SAZ_00131400_restart.nc, var: avmu written ok
           iom_nf90_rp0123d, file: ./SAZ_00131400_restart.nc, var: avmv written ok
           iom_nf90_rp0123d, file: ./SAZ_00131400_restart.nc, var: mxln written ok

 sbc : ocean surface tracer content forcing fields written in ocean restart file at it=       131400  date=     20111214
 ~~~~
           iom_nf90_rp0123d, file: ./SAZ_00131400_restart.nc, var: sbc_hc_b written ok
           iom_nf90_rp0123d, file: ./SAZ_00131400_restart.nc, var: sbc_sc_b written ok
                     iom_close ~~~ close file: ./stSAZ_chlorophyll.nc ok

 qsr tracer content forcing field written in ocean restart file at it=       131400  date=     20111214
 ~~~~
           iom_nf90_rp0123d, file: ./SAZ_00131400_restart.nc, var: qsr_hc_b written ok
           iom_nf90_rp0123d, file: ./SAZ_00131400_restart.nc, var: fraqsr_1lev written ok
           iom_nf90_rp0123d, file: ./SAZ_00131400_restart.nc, var: rdt written ok
           iom_nf90_rp0123d, file: ./SAZ_00131400_restart.nc, var: rdttra1 written ok
           iom_nf90_rp0123d, file: ./SAZ_00131400_restart.nc, var: ub written ok
           iom_nf90_rp0123d, file: ./SAZ_00131400_restart.nc, var: vb written ok
           iom_nf90_rp0123d, file: ./SAZ_00131400_restart.nc, var: tb written ok
           iom_nf90_rp0123d, file: ./SAZ_00131400_restart.nc, var: sb written ok
           iom_nf90_rp0123d, file: ./SAZ_00131400_restart.nc, var: rotb written ok
           iom_nf90_rp0123d, file: ./SAZ_00131400_restart.nc, var: hdivb written ok
           iom_nf90_rp0123d, file: ./SAZ_00131400_restart.nc, var: sshb written ok
           iom_nf90_rp0123d, file: ./SAZ_00131400_restart.nc, var: un written ok
           iom_nf90_rp0123d, file: ./SAZ_00131400_restart.nc, var: vn written ok
           iom_nf90_rp0123d, file: ./SAZ_00131400_restart.nc, var: tn written ok
           iom_nf90_rp0123d, file: ./SAZ_00131400_restart.nc, var: sn written ok
           iom_nf90_rp0123d, file: ./SAZ_00131400_restart.nc, var: rotn written ok
           iom_nf90_rp0123d, file: ./SAZ_00131400_restart.nc, var: hdivn written ok
           iom_nf90_rp0123d, file: ./SAZ_00131400_restart.nc, var: sshn written ok
           iom_nf90_rp0123d, file: ./SAZ_00131400_restart.nc, var: rhop written ok
                     iom_close ~~~ close file: ./SAZ_00131400_restart.nc ok

AAAAAAAA

                     iom_close ~~~ close file: ./SAZL51_initial_WOA13_annual.nc ok
                     iom_close ~~~ close file: ./SAZL51_initial_WOA13_annual.nc ok
